LAMMPS (23 Jun 2022 - Update 2)
####################################################
# Preprocessing Li2SO4 in water
#################### SETTING UP ####################
units real
dimension 3
newton on
boundary p p p
atom_style full

#################### VARIABLES ####################
variable Temp equal 298.15    # Temperature in K
variable Pres equal 1    # Pressure in atm.

variable RandomSeed equal 42 # The random seed for velocity
variable tstep equal 1 # timestep in fs

#################### NPT ####################
variable Ninptpre equal 10000 # Pre-initialize the NPT ensemble (very small timesteps)
variable Ninpt equal 5000000  # Initialize the NPT ensemble
variable Npnpt equal 5000000  # Production in the NPT ensemble (volume)

#################### NVT ####################
variable Ninvtpre equal 10000  # Pre-initialize the NVT ensemble (very small timesteps)
variable Ninvt equal 2500000   # Initialize the NVT ensemble 2.5Mstep
variable Nrun1 equal 250000  # production in the NVT ensemble (Transport properties)
variable Nrun2 equal 1000000  # production in the NVT ensemble (Transport properties)
variable Nrun3 equal 2500000  # production in the NVT ensemble (Transport properties)
variable Nrun4 equal 5000000  # production in the NVT ensemble (Transport properties)

variable Nf equal 100000      # Nfreq (fix ave/time and thermo)
variable Ne equal  1          # Nevery (fix ave/time)
variable Nr equal 100000/1
variable Nd equal 100000
variable NBR equal 5000000/100

variable nb equal 10          # Number of blocks (fix ordern)
variable nbe equal 20         # Number of block elements (fix ordern)
variable Nvisc equal 5        # Nevery for viscosity (fix ordern: sample data at (Nvisc*2))
variable Ncond equal 5        # Nevery for Tconductivity (fix ordern: sample data at (Ncond*2))
variable Ndiff equal 1000     # Nevery for diffusivity (fix ordern: sample data at (Ndiff))
variable Nwrit equal 100000   # Nwrite for transport properties (fix ordern: write every (Nwrit))

variable Nrdfe equal 1000     # Nevery for RDF (fix ave/time)
variable Nrdfw equal 1000     # Nwrite for RDF (compute rdf/ext: write every (Nrdfw*Nrdfe))
variable binnum equal 2000    # Number of bins for RDF

#################### ATOM DEFINITION and FORCEFIELD ####################
read_data ./data.lmp                     # read the positions
Reading data file ...
  orthogonal box = (0 0 0) to (26.379509 26.379509 26.379509)
  reading atoms ...
  1608 atoms
  scanning bonds ...
  scanning angles ...
  reading bonds ...
  1000 bonds
  reading angles ...
  500 angles
Finding 1-2 1-3 1-4 neighbors ...
     2 = max # of 1-2 neighbors
     1 = max # of 1-3 neighbors
     1 = max # of 1-4 neighbors
     2 = max # of special neighbors
include ./forcefield.data                # read the force field
#--------INTERMOLECULAR POTENTIAL -------------------#
# --------Developed for MadridT KCl + TIP4P/2005-----#

mass 1 15.9994	# Ow
mass 2 1.008	# Hw
mass 3 6.941	# Li
mass 4 35.453	# Cl

pair_style lj/cut/tip4p/long 1 2 1 1 0.1546 10.0
kspace_style pppm/tip4p 1.0e-5
pair_modify mix arithmetic tail yes # ATC and Lorentz-Berthelot combining rules

#-----------------Combinations----------------------------
# atomtype atomtype epsilon sigma

pair_coeff 1 1 0.185200 3.15890    # Ow-Ow
pair_coeff 1 2 0.000000 0.00000    # Ow-Hw
pair_coeff 1 3 0.167459 2.12000    # Ow-Li
pair_coeff 1 4 0.014814 4.23867    # Ow-Cl

pair_coeff 2 2 0.000000 0.00000    # Hw-Hw
pair_coeff 2 3 0.000000 0.00000    # Hw-K
pair_coeff 2 4 0.000000 0.00000    # Hw-Cl

pair_coeff 3 3 0.103989 1.43970    # Li-Li
pair_coeff 3 4 0.306631 2.70000    # Li-Cl

pair_coeff 4 4 0.018385 4.69906    # Cl-Cl

bond_style  harmonic
bond_coeff 1 2000 0.9572           # Ow-Hw

angle_style harmonic
angle_coeff 1 200 104.52           # H-Ow-H

#dihedral_style none
#improper_style none

set type 1 charge -1.1128          # O
Setting atom values ...
  500 settings made for charge
set type 2 charge +0.5564          # OH
Setting atom values ...
  1000 settings made for charge
set type 3 charge +0.8500          # Li
Setting atom values ...
  54 settings made for charge
set type 4 charge -0.8500          # Cl
Setting atom values ...
  54 settings made for charge

#################### INITIALIZATION ####################
group wat type 1		# O water
500 atoms in group wat
group Li type 3			# Potasium ion
54 atoms in group Li
group Cl type 4			# Chlorine ion
54 atoms in group Cl

# neigbor lists
neighbor 2.0 bin
neigh_modify every 1 delay 0 check yes

# velocity-Verlet integrator
run_style verlet

# minimizing the system using the conjugate gradient method
min_style cg
min_modify dmax 0.05
minimize 1.0e-6 1.0e-6 1000 10000
PPPM initialization ...
  extracting TIP4P info from pair style
  G vector (1/distance) = 0.31127036
  grid = 25 25 25
  stencil order = 5
  estimated absolute RMS force accuracy = 0.0034097995
  estimated relative force accuracy = 1.026851e-05
  3d grid and FFT values/proc = 6400 1875
Generated 0 of 6 mixed pair_coeff terms from arithmetic mixing rule
  update every 1 steps, delay 0 steps, check yes
Step          Temp          E_pair         E_mol          TotEng         Press
0   0              641.68376      3.1566538e-05  641.68379      52703.279
Loop time of 5.94458 on 12 procs for 1000 steps with 1608 atoms

Minimization stats:
  Stopping criterion = max iterations
  Energy initial, next-to-last, final =
  Force two-norm initial, final = 2112.4623 42.476166
  Force max component initial, final = 608.22136 9.3161348
  Final line search alpha, max atom move = 0.0026960674 0.025116928
  Iterations, force evaluations = 1000 1842

reset_timestep 0

# initializing velocities
velocity all create 298.15 42

# rate of writing thermal properties to the log file
thermo_style custom step density temp press etotal
thermo_modify flush yes
thermo 100000

#################### 2) Initialize the NPT ensemble ####################
######### Go to the correct temperature now ant initiate that ##########
fix constrain all shake 1.0e-6 1000 0 b 1 a 1
       0 = # of size 2 clusters
       0 = # of size 3 clusters
       0 = # of size 4 clusters
     500 = # of frozen angles
  find clusters CPU = 0.001 seconds
fix integrate all npt temp 298.15 298.15 10.0 iso 1 1 100.0

# Initializing the whole system with very small timesteps in the NPT ensemble
timestep 0.001
run 10000
PPPM initialization ...
  extracting TIP4P info from pair style
  G vector (1/distance) = 0.31127036
  grid = 25 25 25
  stencil order = 5
  estimated absolute RMS force accuracy = 0.0034097995
  estimated relative force accuracy = 1.026851e-05
  3d grid and FFT values/proc = 6400 1875
Generated 0 of 6 mixed pair_coeff terms from arithmetic mixing rule
Step        Density          Temp          Press          TotEng
0   1.0219065      432.81576     -1311556.1     -14267.536
Loop time of 43.1962 on 12 procs for 10000 steps with 1608 atoms

timestep 0.01
run 10000
PPPM initialization ...
  extracting TIP4P info from pair style
  G vector (1/distance) = 0.3114812
  grid = 25 25 25
  stencil order = 5
  estimated absolute RMS force accuracy = 0.0033801094
  estimated relative force accuracy = 1.0179099e-05
  3d grid and FFT values/proc = 6400 1875
Generated 0 of 6 mixed pair_coeff terms from arithmetic mixing rule
Step        Density          Temp          Press          TotEng
10000   1.0309603      173.12874     -185299.38     -14479.62
Loop time of 43.1182 on 12 procs for 10000 steps with 1608 atoms

timestep 0.1
run 10000
PPPM initialization ...
  extracting TIP4P info from pair style
  G vector (1/distance) = 0.31131817
  grid = 25 25 25
  stencil order = 5
  estimated absolute RMS force accuracy = 0.0034030459
  estimated relative force accuracy = 1.0248172e-05
  3d grid and FFT values/proc = 6400 1875
Generated 0 of 6 mixed pair_coeff terms from arithmetic mixing rule
Step        Density          Temp          Press          TotEng
20000   1.0239518      298.15262     -18953.267     -13413.105
Loop time of 44.7919 on 12 procs for 10000 steps with 1608 atoms

timestep 0.2
run 10000
PPPM initialization ...
  extracting TIP4P info from pair style
  G vector (1/distance) = 0.31249425
  grid = 25 25 25
  stencil order = 5
  estimated absolute RMS force accuracy = 0.0032407143
  estimated relative force accuracy = 9.759315e-06
  3d grid and FFT values/proc = 6400 1875
Generated 0 of 6 mixed pair_coeff terms from arithmetic mixing rule
Step        Density          Temp          Press          TotEng
30000   1.0757366      294.25727     -1526.9895     -13630.723
Loop time of 45.5554 on 12 procs for 10000 steps with 1608 atoms

timestep 0.5
run 10000
PPPM initialization ...
  extracting TIP4P info from pair style
  G vector (1/distance) = 0.31018541
  grid = 24 24 24
  stencil order = 5
  estimated absolute RMS force accuracy = 0.0037917529
  estimated relative force accuracy = 1.1418751e-05
  3d grid and FFT values/proc = 5415 1152
Generated 0 of 6 mixed pair_coeff terms from arithmetic mixing rule
Step        Density          Temp          Press          TotEng
40000   1.1038515      296.20276     -1297.8511     -13772.088
Loop time of 43.8515 on 12 procs for 10000 steps with 1608 atoms

reset_timestep 0

# continuing the initialization with the final value of timestep
unfix integrate
fix integrate all npt temp 298.15 298.15 100.0 iso 1 1 1000.0

timestep 1

run 5000000
PPPM initialization ...
  extracting TIP4P info from pair style
  G vector (1/distance) = 0.31034175
  grid = 24 24 24
  stencil order = 5
  estimated absolute RMS force accuracy = 0.0037673501
  estimated relative force accuracy = 1.1345263e-05
  3d grid and FFT values/proc = 5415 1152
Generated 0 of 6 mixed pair_coeff terms from arithmetic mixing rule
Step        Density          Temp          Press          TotEng
0   1.1110493      283.71543      801.42466     -13858.34
Averages over the last 26 of 51 rows, steps 2500000 to 5000000:
Density Temp Press TotEng
1.11495 298.94 -56.7804 -13911.1
Loop time of 22723.9 on 12 procs for 5000000 steps with 1608 atoms

reset_timestep 0

#################### 3) Obtaining average volume in NPT ######################
# Creating restart files
restart 100000 1.restart 2.restart

# Getting the average volume of the system
variable Volume equal vol
fix VoluAve all ave/time 1 5000000 5000000 v_Volume file volume.dat

variable Dens equal density
fix DensAve all ave/time 1 50000 50000 v_Dens file density.dat

compute T1 all temp
fix TempAve1 all ave/time 1 50000 50000 c_T1 file temperatureNPT.dat

compute P1 all pressure T1
fix PressAve1 all ave/time 1 50000 50000 c_P1 file pressureNPT.dat

run 5000000
PPPM initialization ...
  extracting TIP4P info from pair style
  G vector (1/distance) = 0.31042987
  grid = 24 24 24
  stencil order = 5
  estimated absolute RMS force accuracy = 0.0037536591
  estimated relative force accuracy = 1.1304033e-05
  3d grid and FFT values/proc = 5415 1152
Generated 0 of 6 mixed pair_coeff terms from arithmetic mixing rule
Step        Density          Temp          Press          TotEng
0   1.1151293      294.98671     -244.77563     -13970.468
Averages over the last 26 of 51 rows, steps 2500000 to 5000000:
Density Temp Press TotEng
1.11621 297.581 139.816 -13921.6
Loop time of 22924.2 on 12 procs for 5000000 steps with 1608 atoms

#################### 4) Initializing the NVT ensemble ####################
# scaling the size of the system to the average volume
variable sidesize equal (f_VoluAve^(1.0/3.0))    # get the volume
variable xlow equal xlo
variable ylow equal ylo
variable zlow equal zlo
variable xhig equal (xlo+25.6287141640118)
variable yhig equal (ylo+25.6287141640118)
variable zhig equal (zlo+25.6287141640118)
change_box all x final 0.388753658437844 26.0174678224496 y final 0.388753658437844 26.0174678224496 z final 0.388753658437844 26.0174678224496
Changing box ...
  orthogonal box = (0.38875366 0.38875366 0.38875366) to (26.017468 25.990755 25.990755)
  orthogonal box = (0.38875366 0.38875366 0.38875366) to (26.017468 26.017468 25.990755)
  orthogonal box = (0.38875366 0.38875366 0.38875366) to (26.017468 26.017468 26.017468)
unfix DensAve
unfix VoluAve
unfix TempAve1
unfix PressAve1

# changing the ensemble to NVT
unfix integrate
fix integrate all nvt temp 298.15 298.15 10.0

timestep 0.001
run 10000
PPPM initialization ...
  extracting TIP4P info from pair style
  G vector (1/distance) = 0.31041357
  grid = 24 24 24
  stencil order = 5
  estimated absolute RMS force accuracy = 0.0037561872
  estimated relative force accuracy = 1.1311646e-05
  3d grid and FFT values/proc = 5415 1152
Generated 0 of 6 mixed pair_coeff terms from arithmetic mixing rule
Step        Density          Temp          Press          TotEng
5000000   1.1143736      306.25247     -142042.94     -13918.312
Loop time of 31.8606 on 12 procs for 10000 steps with 1608 atoms

timestep 0.01
run 10000
PPPM initialization ...
  extracting TIP4P info from pair style
  G vector (1/distance) = 0.31041357
  grid = 24 24 24
  stencil order = 5
  estimated absolute RMS force accuracy = 0.0037561872
  estimated relative force accuracy = 1.1311646e-05
  3d grid and FFT values/proc = 5415 1152
Generated 0 of 6 mixed pair_coeff terms from arithmetic mixing rule
Step        Density          Temp          Press          TotEng
5010000   1.1143736      296.18134     -1100.7145     -13920.331
Loop time of 31.8802 on 12 procs for 10000 steps with 1608 atoms

timestep 0.1
run 10000
PPPM initialization ...
  extracting TIP4P info from pair style
  G vector (1/distance) = 0.31041357
  grid = 24 24 24
  stencil order = 5
  estimated absolute RMS force accuracy = 0.0037561872
  estimated relative force accuracy = 1.1311646e-05
  3d grid and FFT values/proc = 5415 1152
Generated 0 of 6 mixed pair_coeff terms from arithmetic mixing rule
Step        Density          Temp          Press          TotEng
5020000   1.1143736      305.83674      614.97051     -13868.828
Loop time of 31.3894 on 12 procs for 10000 steps with 1608 atoms

timestep 0.2
run 10000
PPPM initialization ...
  extracting TIP4P info from pair style
  G vector (1/distance) = 0.31041357
  grid = 24 24 24
  stencil order = 5
  estimated absolute RMS force accuracy = 0.0037561872
  estimated relative force accuracy = 1.1311646e-05
  3d grid and FFT values/proc = 5415 1152
Generated 0 of 6 mixed pair_coeff terms from arithmetic mixing rule
Step        Density          Temp          Press          TotEng
5030000   1.1143736      294.50483      178.1071      -13954.939
Loop time of 31.8671 on 12 procs for 10000 steps with 1608 atoms

timestep 0.5
run 10000
PPPM initialization ...
  extracting TIP4P info from pair style
  G vector (1/distance) = 0.31041357
  grid = 24 24 24
  stencil order = 5
  estimated absolute RMS force accuracy = 0.0037561872
  estimated relative force accuracy = 1.1311646e-05
  3d grid and FFT values/proc = 5415 1152
Generated 0 of 6 mixed pair_coeff terms from arithmetic mixing rule
Step        Density          Temp          Press          TotEng
5040000   1.1143736      291.32665     -576.84803     -13913.009
Loop time of 31.1265 on 12 procs for 10000 steps with 1608 atoms

unfix integrate
fix integrate all nvt temp 298.15 298.15 100.0
# continuing the initialization with the final value of timestep
timestep 1

run 2500000
PPPM initialization ...
  extracting TIP4P info from pair style
  G vector (1/distance) = 0.31041357
  grid = 24 24 24
  stencil order = 5
  estimated absolute RMS force accuracy = 0.0037561872
  estimated relative force accuracy = 1.1311646e-05
  3d grid and FFT values/proc = 5415 1152
Generated 0 of 6 mixed pair_coeff terms from arithmetic mixing rule
Step        Density          Temp          Press          TotEng
5050000   1.1143736      296.96074     -128.85442     -13935.34
Averages over the last 14 of 27 rows, steps 6300000 to 7550000:
Density Temp Press TotEng
1.11437 297.921 -5.90158 -13918.8
Loop time of 7992.78 on 12 procs for 2500000 steps with 1608 atoms

reset_timestep 0

#################### 2) Production in NVT ensemble #####################
# computing average total energy, pontential energy, temperature, and pressure over time
variable TotEn equal etotal
fix TEAve all ave/time 1 100000 100000 v_TotEn file TotalE.dat

variable PotEn equal pe
fix PEAve all ave/time 1 100000 100000 v_PotEn file PotenE.dat

compute T all temp
fix TempAve all ave/time 1 100000 100000 c_T file temperature.dat

compute P all pressure T
fix PressAve all ave/time 1 100000 100000 c_P file pressure.dat

# computing self-diffusion and Onsager coefficients using the OCTP plugin
compute positions all position
fix f1 all ordern diffusivity 1000 100000 c_positions nb 10 nbe 20

# computing shear and bulk viscosities  using the OCTP plugin
fix f2 all ordern viscosity 5 100000 c_P nb 10 nbe 20

# computing thermal conductivity using the OCTP plugin
compute KE all ke/atom
compute PE all pe/atom
compute ST all stress/atom NULL virial
compute heatflux all heat/flux KE PE ST
fix f3 all ordern thermalconductivity 5 100000 c_heatflux nb 10 nbe 20

# computing the RDF for all group pairs
compute rdfs all rdf/ext Nbin 2000 Nwrite 1000
fix f4 all ave/time 1 1 1000 c_rdfs

dump trjectory all xyz 100000 movie.xyz
dump_modify trjectory element Ow H K Cl

run 250000

CITE-CITE-CITE-CITE-CITE-CITE-CITE-CITE-CITE-CITE-CITE-CITE-CITE

Your simulation uses code contributions which should be cited:

- fix ave/ordern command:

@Article{Jamali2019,
 author = {Jamali, Seyed Hossein and Wolf, Ludger and Becker, Tim M. and de Groen, Maritte and Ramdin, Mahinder and Hartkamp, Remco and Bardow, Andr and Vlugt, Thijs J. H. and Moultos, Othonas A.},
 title = {OCTP: A Tool for On-the-Fly Calculation of Transport Properties of Fluids with the Order-n Algorithm in LAMMPS},
 doi = {10.1021/acs.jcim.8b00939},
 journal = {J. Chem. Inf. Model.},
 year = {2019},
 volume = {59},
 pages = {1290-1294}
 }

CITE-CITE-CITE-CITE-CITE-CITE-CITE-CITE-CITE-CITE-CITE-CITE-CITE

PPPM initialization ...
  extracting TIP4P info from pair style
  G vector (1/distance) = 0.31041357
  grid = 24 24 24
  stencil order = 5
  estimated absolute RMS force accuracy = 0.0037561872
  estimated relative force accuracy = 1.1311646e-05
  3d grid and FFT values/proc = 5415 1152
Generated 0 of 6 mixed pair_coeff terms from arithmetic mixing rule
Step        Density          Temp          Press          TotEng
0   1.1143736      305.53455      259.18404     -13903.5
Loop time of 1272 on 12 procs for 250000 steps with 1608 atoms

shell bash copy_files.sh dt_1 00.25Mstep

run 250000
PPPM initialization ...
  extracting TIP4P info from pair style
  G vector (1/distance) = 0.31041357
  grid = 24 24 24
  stencil order = 5
  estimated absolute RMS force accuracy = 0.0037561872
  estimated relative force accuracy = 1.1311646e-05
  3d grid and FFT values/proc = 5415 1152
Generated 0 of 6 mixed pair_coeff terms from arithmetic mixing rule
Step        Density          Temp          Press          TotEng
250000   1.1143736      296.9569       338.17408     -13957.321
Loop time of 1272.77 on 12 procs for 250000 steps with 1608 atoms

shell bash copy_files.sh dt_1 00.50Mstep

run 250000
PPPM initialization ...
  extracting TIP4P info from pair style
  G vector (1/distance) = 0.31041357
  grid = 24 24 24
  stencil order = 5
  estimated absolute RMS force accuracy = 0.0037561872
  estimated relative force accuracy = 1.1311646e-05
  3d grid and FFT values/proc = 5415 1152
Generated 0 of 6 mixed pair_coeff terms from arithmetic mixing rule
Step        Density          Temp          Press          TotEng
500000   1.1143736      304.23607     -435.91672     -13879.003
Loop time of 1280.17 on 12 procs for 250000 steps with 1608 atoms

shell bash copy_files.sh dt_1 00.75Mstep

run 250000
PPPM initialization ...
  extracting TIP4P info from pair style
  G vector (1/distance) = 0.31041357
  grid = 24 24 24
  stencil order = 5
  estimated absolute RMS force accuracy = 0.0037561872
  estimated relative force accuracy = 1.1311646e-05
  3d grid and FFT values/proc = 5415 1152
Generated 0 of 6 mixed pair_coeff terms from arithmetic mixing rule
Step        Density          Temp          Press          TotEng
750000   1.1143736      314.14473      57.613572     -13865.483
Loop time of 1271.85 on 12 procs for 250000 steps with 1608 atoms

shell bash copy_files.sh dt_1 01.00Mstep

run 250000
PPPM initialization ...
  extracting TIP4P info from pair style
  G vector (1/distance) = 0.31041357
  grid = 24 24 24
  stencil order = 5
  estimated absolute RMS force accuracy = 0.0037561872
  estimated relative force accuracy = 1.1311646e-05
  3d grid and FFT values/proc = 5415 1152
Generated 0 of 6 mixed pair_coeff terms from arithmetic mixing rule
Step        Density          Temp          Press          TotEng
1000000   1.1143736      301.77701     -908.2175      -13893.89
Loop time of 1271.62 on 12 procs for 250000 steps with 1608 atoms

shell bash copy_files.sh dt_1 01.25Mstep

run 250000
PPPM initialization ...
  extracting TIP4P info from pair style
  G vector (1/distance) = 0.31041357
  grid = 24 24 24
  stencil order = 5
  estimated absolute RMS force accuracy = 0.0037561872
  estimated relative force accuracy = 1.1311646e-05
  3d grid and FFT values/proc = 5415 1152
Generated 0 of 6 mixed pair_coeff terms from arithmetic mixing rule
Step        Density          Temp          Press          TotEng
1250000   1.1143736      298.13131     -364.51795     -13961.832
Loop time of 1271.97 on 12 procs for 250000 steps with 1608 atoms

shell bash copy_files.sh dt_1 01.50Mstep

run 250000
PPPM initialization ...
  extracting TIP4P info from pair style
  G vector (1/distance) = 0.31041357
  grid = 24 24 24
  stencil order = 5
  estimated absolute RMS force accuracy = 0.0037561872
  estimated relative force accuracy = 1.1311646e-05
  3d grid and FFT values/proc = 5415 1152
Generated 0 of 6 mixed pair_coeff terms from arithmetic mixing rule
Step        Density          Temp          Press          TotEng
1500000   1.1143736      294.01063      40.210377     -13935.164
Loop time of 1267.46 on 12 procs for 250000 steps with 1608 atoms

shell bash copy_files.sh dt_1 01.75Mstep

run 250000
PPPM initialization ...
  extracting TIP4P info from pair style
  G vector (1/distance) = 0.31041357
  grid = 24 24 24
  stencil order = 5
  estimated absolute RMS force accuracy = 0.0037561872
  estimated relative force accuracy = 1.1311646e-05
  3d grid and FFT values/proc = 5415 1152
Generated 0 of 6 mixed pair_coeff terms from arithmetic mixing rule
Step        Density          Temp          Press          TotEng
1750000   1.1143736      295.83477     -928.85607     -13939.174
Loop time of 1278.9 on 12 procs for 250000 steps with 1608 atoms

shell bash copy_files.sh dt_1 02.00step

run 1000000
PPPM initialization ...
  extracting TIP4P info from pair style
  G vector (1/distance) = 0.31041357
  grid = 24 24 24
  stencil order = 5
  estimated absolute RMS force accuracy = 0.0037561872
  estimated relative force accuracy = 1.1311646e-05
  3d grid and FFT values/proc = 5415 1152
Generated 0 of 6 mixed pair_coeff terms from arithmetic mixing rule
Step        Density          Temp          Press          TotEng
2000000   1.1143736      307.78787     -162.76692     -13921.581
Averages over the last 6 of 11 rows, steps 2500000 to 3000000:
Density Temp Press TotEng
1.11437 300.864 69.9725 -13933.5
Loop time of 5093.77 on 12 procs for 1000000 steps with 1608 atoms

shell bash copy_files.sh dt_1 03.00Mstep

run 1000000
PPPM initialization ...
  extracting TIP4P info from pair style
  G vector (1/distance) = 0.31041357
  grid = 24 24 24
  stencil order = 5
  estimated absolute RMS force accuracy = 0.0037561872
  estimated relative force accuracy = 1.1311646e-05
  3d grid and FFT values/proc = 5415 1152
Generated 0 of 6 mixed pair_coeff terms from arithmetic mixing rule
Step        Density          Temp          Press          TotEng
3000000   1.1143736      294.96738     -181.23533     -13980.094
Averages over the last 6 of 11 rows, steps 3500000 to 4000000:
Density Temp Press TotEng
1.11437 298.868 498.754 -13908.2
Loop time of 5085.97 on 12 procs for 1000000 steps with 1608 atoms

shell bash copy_files.sh dt_1 04.00Mstep

run 1000000
PPPM initialization ...
  extracting TIP4P info from pair style
  G vector (1/distance) = 0.31041357
  grid = 24 24 24
  stencil order = 5
  estimated absolute RMS force accuracy = 0.0037561872
  estimated relative force accuracy = 1.1311646e-05
  3d grid and FFT values/proc = 5415 1152
Generated 0 of 6 mixed pair_coeff terms from arithmetic mixing rule
Step        Density          Temp          Press          TotEng
4000000   1.1143736      297.95466      152.21        -13977.118
Averages over the last 6 of 11 rows, steps 4500000 to 5000000:
Density Temp Press TotEng
1.11437 294.566 -331.084 -13892.1
Loop time of 5093.62 on 12 procs for 1000000 steps with 1608 atoms

shell bash copy_files.sh dt_1 05.00Mstep

run 1000000
PPPM initialization ...
  extracting TIP4P info from pair style
  G vector (1/distance) = 0.31041357
  grid = 24 24 24
  stencil order = 5
  estimated absolute RMS force accuracy = 0.0037561872
  estimated relative force accuracy = 1.1311646e-05
  3d grid and FFT values/proc = 5415 1152
Generated 0 of 6 mixed pair_coeff terms from arithmetic mixing rule
Step        Density          Temp          Press          TotEng
5000000   1.1143736      311.39098     -134.78774     -13934.627
Averages over the last 6 of 11 rows, steps 5500000 to 6000000:
Density Temp Press TotEng
1.11437 301.532 -122.663 -13912.7
Loop time of 5088.18 on 12 procs for 1000000 steps with 1608 atoms

shell bash copy_files.sh dt_1 06.00Mstep

run 1000000
PPPM initialization ...
  extracting TIP4P info from pair style
  G vector (1/distance) = 0.31041357
  grid = 24 24 24
  stencil order = 5
  estimated absolute RMS force accuracy = 0.0037561872
  estimated relative force accuracy = 1.1311646e-05
  3d grid and FFT values/proc = 5415 1152
Generated 0 of 6 mixed pair_coeff terms from arithmetic mixing rule
Step        Density          Temp          Press          TotEng
6000000   1.1143736      302.24949     -419.55668     -13902.864
Averages over the last 6 of 11 rows, steps 6500000 to 7000000:
Density Temp Press TotEng
1.11437 300.896 -336.474 -13898
Loop time of 5082.2 on 12 procs for 1000000 steps with 1608 atoms

shell bash copy_files.sh dt_1 07.00Mstep

run 1000000
PPPM initialization ...
  extracting TIP4P info from pair style
  G vector (1/distance) = 0.31041357
  grid = 24 24 24
  stencil order = 5
  estimated absolute RMS force accuracy = 0.0037561872
  estimated relative force accuracy = 1.1311646e-05
  3d grid and FFT values/proc = 5415 1152
Generated 0 of 6 mixed pair_coeff terms from arithmetic mixing rule
Step        Density          Temp          Press          TotEng
7000000   1.1143736      298.16845     -436.35053     -13906.231
Averages over the last 6 of 11 rows, steps 7500000 to 8000000:
Density Temp Press TotEng
1.11437 297.798 264.516 -13919.3
Loop time of 5081.29 on 12 procs for 1000000 steps with 1608 atoms

shell bash copy_files.sh dt_1 08.00Mstep

run 1000000
PPPM initialization ...
  extracting TIP4P info from pair style
  G vector (1/distance) = 0.31041357
  grid = 24 24 24
  stencil order = 5
  estimated absolute RMS force accuracy = 0.0037561872
  estimated relative force accuracy = 1.1311646e-05
  3d grid and FFT values/proc = 5415 1152
Generated 0 of 6 mixed pair_coeff terms from arithmetic mixing rule
Step        Density          Temp          Press          TotEng
8000000   1.1143736      297.64135      145.86886     -13882.082
Averages over the last 6 of 11 rows, steps 8500000 to 9000000:
Density Temp Press TotEng
1.11437 301.111 5.46118 -13910.8
Loop time of 5052.39 on 12 procs for 1000000 steps with 1608 atoms

shell bash copy_files.sh dt_1 09.00Mstep

run 1000000
PPPM initialization ...
  extracting TIP4P info from pair style
  G vector (1/distance) = 0.31041357
  grid = 24 24 24
  stencil order = 5
  estimated absolute RMS force accuracy = 0.0037561872
  estimated relative force accuracy = 1.1311646e-05
  3d grid and FFT values/proc = 5415 1152
Generated 0 of 6 mixed pair_coeff terms from arithmetic mixing rule
Step        Density          Temp          Press          TotEng
9000000   1.1143736      295.80543      39.498929     -13939.988
Averages over the last 6 of 11 rows, steps 9500000 to 10000000:
Density Temp Press TotEng
1.11437 303.303 586.003 -13904.4
Loop time of 5056.64 on 12 procs for 1000000 steps with 1608 atoms

shell bash copy_files.sh dt_1 10.00Mstep

run 2500000
PPPM initialization ...
  extracting TIP4P info from pair style
  G vector (1/distance) = 0.31041357
  grid = 24 24 24
  stencil order = 5
  estimated absolute RMS force accuracy = 0.0037561872
  estimated relative force accuracy = 1.1311646e-05
  3d grid and FFT values/proc = 5415 1152
Generated 0 of 6 mixed pair_coeff terms from arithmetic mixing rule
Step        Density          Temp          Press          TotEng
10000000   1.1143736      289.81177      1610.8208     -13912.244
Averages over the last 13 of 26 rows, steps 11300000 to 12500000:
Density Temp Press TotEng
1.11437 300.072 -78.7737 -13933.9
Loop time of 12702.8 on 12 procs for 2500000 steps with 1608 atoms

shell bash copy_files.sh dt_1 12.50Mstep

run 2500000
PPPM initialization ...
  extracting TIP4P info from pair style
  G vector (1/distance) = 0.31041357
  grid = 24 24 24
  stencil order = 5
  estimated absolute RMS force accuracy = 0.0037561872
  estimated relative force accuracy = 1.1311646e-05
  3d grid and FFT values/proc = 5415 1152
Generated 0 of 6 mixed pair_coeff terms from arithmetic mixing rule
Step        Density          Temp          Press          TotEng
12500000   1.1143736      300.11082     -184.13428     -13945.605
Averages over the last 13 of 26 rows, steps 13800000 to 15000000:
Density Temp Press TotEng
1.11437 297.883 -21.1359 -13927.2
Loop time of 12705.4 on 12 procs for 2500000 steps with 1608 atoms

shell bash copy_files.sh dt_1 15.00Mstep

run 2500000
PPPM initialization ...
  extracting TIP4P info from pair style
  G vector (1/distance) = 0.31041357
  grid = 24 24 24
  stencil order = 5
  estimated absolute RMS force accuracy = 0.0037561872
  estimated relative force accuracy = 1.1311646e-05
  3d grid and FFT values/proc = 5415 1152
Generated 0 of 6 mixed pair_coeff terms from arithmetic mixing rule
Step        Density          Temp          Press          TotEng
15000000   1.1143736      293.64289      17.8252       -13929.369
Averages over the last 13 of 26 rows, steps 16300000 to 17500000:
Density Temp Press TotEng
1.11437 296.91 78.3376 -13922.3
Loop time of 12781.4 on 12 procs for 2500000 steps with 1608 atoms

shell bash copy_files.sh dt_1 17.50Mstep

run 2500000
PPPM initialization ...
  extracting TIP4P info from pair style
  G vector (1/distance) = 0.31041357
  grid = 24 24 24
  stencil order = 5
  estimated absolute RMS force accuracy = 0.0037561872
  estimated relative force accuracy = 1.1311646e-05
  3d grid and FFT values/proc = 5415 1152
Generated 0 of 6 mixed pair_coeff terms from arithmetic mixing rule
Step        Density          Temp          Press          TotEng
17500000   1.1143736      301.98628     -365.87607     -13889.044
Averages over the last 13 of 26 rows, steps 18800000 to 20000000:
Density Temp Press TotEng
1.11437 296.934 -155.653 -13938.9
Loop time of 12707.5 on 12 procs for 2500000 steps with 1608 atoms

shell bash copy_files.sh dt_1 20.00Mstep

run 5000000
PPPM initialization ...
  extracting TIP4P info from pair style
  G vector (1/distance) = 0.31041357
  grid = 24 24 24
  stencil order = 5
  estimated absolute RMS force accuracy = 0.0037561872
  estimated relative force accuracy = 1.1311646e-05
  3d grid and FFT values/proc = 5415 1152
Generated 0 of 6 mixed pair_coeff terms from arithmetic mixing rule
Step        Density          Temp          Press          TotEng
20000000   1.1143736      301.04228     -812.8997      -13917.265
Averages over the last 26 of 51 rows, steps 22500000 to 25000000:
Density Temp Press TotEng
1.11437 299.593 -122.781 -13931.4
Loop time of 25383.4 on 12 procs for 5000000 steps with 1608 atoms

shell bash copy_files.sh dt_1 25.00Mstep

run 5000000
PPPM initialization ...
  extracting TIP4P info from pair style
  G vector (1/distance) = 0.31041357
  grid = 24 24 24
  stencil order = 5
  estimated absolute RMS force accuracy = 0.0037561872
  estimated relative force accuracy = 1.1311646e-05
  3d grid and FFT values/proc = 5415 1152
Generated 0 of 6 mixed pair_coeff terms from arithmetic mixing rule
Step        Density          Temp          Press          TotEng
25000000   1.1143736      296.53187     -1220.4834     -13914.638
Averages over the last 26 of 51 rows, steps 27500000 to 30000000:
Density Temp Press TotEng
1.11437 298.678 300.982 -13919.5
Loop time of 25439.1 on 12 procs for 5000000 steps with 1608 atoms

shell bash copy_files.sh dt_1 30.00Mstep

run 5000000
PPPM initialization ...
  extracting TIP4P info from pair style
  G vector (1/distance) = 0.31041357
  grid = 24 24 24
  stencil order = 5
  estimated absolute RMS force accuracy = 0.0037561872
  estimated relative force accuracy = 1.1311646e-05
  3d grid and FFT values/proc = 5415 1152
Generated 0 of 6 mixed pair_coeff terms from arithmetic mixing rule
Step        Density          Temp          Press          TotEng
30000000   1.1143736      303.56349      560.88456     -13888.008
Averages over the last 26 of 51 rows, steps 32500000 to 35000000:
Density Temp Press TotEng
1.11437 297.762 330.549 -13926.9
Loop time of 25388.4 on 12 procs for 5000000 steps with 1608 atoms

shell bash copy_files.sh dt_1 35.00Mstep

run 5000000
PPPM initialization ...
  extracting TIP4P info from pair style
  G vector (1/distance) = 0.31041357
  grid = 24 24 24
  stencil order = 5
  estimated absolute RMS force accuracy = 0.0037561872
  estimated relative force accuracy = 1.1311646e-05
  3d grid and FFT values/proc = 5415 1152
Generated 0 of 6 mixed pair_coeff terms from arithmetic mixing rule
Step        Density          Temp          Press          TotEng
35000000   1.1143736      292.5546       347.31353     -13952.736
Averages over the last 26 of 51 rows, steps 37500000 to 40000000:
Density Temp Press TotEng
1.11437 296.643 124.51 -13935.1
Loop time of 25388.7 on 12 procs for 5000000 steps with 1608 atoms
