LAMMPS (23 Jun 2022 - Update 2)
####################################################
# Preprocessing Li2SO4 in water
#################### SETTING UP ####################
units real
dimension 3
newton on
boundary p p p
atom_style full

#################### VARIABLES ####################
variable Temp equal 298.15    # Temperature in K
variable Pres equal 1    # Pressure in atm.

variable RandomSeed equal 32 # The random seed for velocity
variable tstep equal 1 # timestep in fs

#################### NPT ####################
variable Ninptpre equal 10000 # Pre-initialize the NPT ensemble (very small timesteps)
variable Ninpt equal 5000000  # Initialize the NPT ensemble
variable Npnpt equal 5000000  # Production in the NPT ensemble (volume)

#################### NVT ####################
variable Ninvtpre equal 10000  # Pre-initialize the NVT ensemble (very small timesteps)
variable Ninvt equal 2500000   # Initialize the NVT ensemble 2.5Mstep
variable Nrun1 equal 250000  # production in the NVT ensemble (Transport properties)
variable Nrun2 equal 1000000  # production in the NVT ensemble (Transport properties)
variable Nrun3 equal 2500000  # production in the NVT ensemble (Transport properties)
variable Nrun4 equal 5000000  # production in the NVT ensemble (Transport properties)

variable Nf equal 100000      # Nfreq (fix ave/time and thermo)
variable Ne equal  1          # Nevery (fix ave/time)
variable Nr equal 100000/1
variable Nd equal 100000
variable NBR equal 5000000/100

variable nb equal 10          # Number of blocks (fix ordern)
variable nbe equal 20         # Number of block elements (fix ordern)
variable Nvisc equal 5        # Nevery for viscosity (fix ordern: sample data at (Nvisc*2))
variable Ncond equal 5        # Nevery for Tconductivity (fix ordern: sample data at (Ncond*2))
variable Ndiff equal 1000     # Nevery for diffusivity (fix ordern: sample data at (Ndiff))
variable Nwrit equal 100000   # Nwrite for transport properties (fix ordern: write every (Nwrit))

variable Nrdfe equal 1000     # Nevery for RDF (fix ave/time)
variable Nrdfw equal 1000     # Nwrite for RDF (compute rdf/ext: write every (Nrdfw*Nrdfe))
variable binnum equal 2000    # Number of bins for RDF

#################### ATOM DEFINITION and FORCEFIELD ####################
read_data ./data.lmp                     # read the positions
Reading data file ...
  orthogonal box = (0 0 0) to (26.379509 26.379509 26.379509)
  reading atoms ...
  1608 atoms
  scanning bonds ...
  scanning angles ...
  reading bonds ...
  1000 bonds
  reading angles ...
  500 angles
Finding 1-2 1-3 1-4 neighbors ...
     2 = max # of 1-2 neighbors
     1 = max # of 1-3 neighbors
     1 = max # of 1-4 neighbors
     2 = max # of special neighbors
include ./forcefield.data                # read the force field
#--------INTERMOLECULAR POTENTIAL -------------------#
# --------Developed for MadridT KCl + TIP4P/2005-----#

mass 1 15.9994	# Ow
mass 2 1.008	# Hw
mass 3 6.941	# Li
mass 4 35.453	# Cl

pair_style lj/cut/tip4p/long 1 2 1 1 0.1546 10.0
kspace_style pppm/tip4p 1.0e-5
pair_modify mix arithmetic tail yes # ATC and Lorentz-Berthelot combining rules

#-----------------Combinations----------------------------
# atomtype atomtype epsilon sigma

pair_coeff 1 1 0.185200 3.15890    # Ow-Ow
pair_coeff 1 2 0.000000 0.00000    # Ow-Hw
pair_coeff 1 3 0.167459 2.12000    # Ow-Li
pair_coeff 1 4 0.014814 4.23867    # Ow-Cl

pair_coeff 2 2 0.000000 0.00000    # Hw-Hw
pair_coeff 2 3 0.000000 0.00000    # Hw-K
pair_coeff 2 4 0.000000 0.00000    # Hw-Cl

pair_coeff 3 3 0.103989 1.43970    # Li-Li
pair_coeff 3 4 0.306631 2.70000    # Li-Cl

pair_coeff 4 4 0.018385 4.69906    # Cl-Cl

bond_style  harmonic
bond_coeff 1 2000 0.9572           # Ow-Hw

angle_style harmonic
angle_coeff 1 200 104.52           # H-Ow-H

#dihedral_style none
#improper_style none

set type 1 charge -1.1128          # O
Setting atom values ...
  500 settings made for charge
set type 2 charge +0.5564          # OH
Setting atom values ...
  1000 settings made for charge
set type 3 charge +0.8500          # Li
Setting atom values ...
  54 settings made for charge
set type 4 charge -0.8500          # Cl
Setting atom values ...
  54 settings made for charge

#################### INITIALIZATION ####################
group wat type 1		# O water
500 atoms in group wat
group Li type 3			# Potasium ion
54 atoms in group Li
group Cl type 4			# Chlorine ion
54 atoms in group Cl

# neigbor lists
neighbor 2.0 bin
neigh_modify every 1 delay 0 check yes

# velocity-Verlet integrator
run_style verlet

# minimizing the system using the conjugate gradient method
min_style cg
min_modify dmax 0.05
minimize 1.0e-6 1.0e-6 1000 10000
PPPM initialization ...
  extracting TIP4P info from pair style
  G vector (1/distance) = 0.31127036
  grid = 25 25 25
  stencil order = 5
  estimated absolute RMS force accuracy = 0.0034097995
  estimated relative force accuracy = 1.026851e-05
  3d grid and FFT values/proc = 6400 1875
Generated 0 of 6 mixed pair_coeff terms from arithmetic mixing rule
  update every 1 steps, delay 0 steps, check yes
Step          Temp          E_pair         E_mol          TotEng         Press
0   0              641.68376      3.1566538e-05  641.68379      52703.279
Loop time of 5.96284 on 12 procs for 1000 steps with 1608 atoms

Minimization stats:
  Stopping criterion = max iterations
  Energy initial, next-to-last, final =
  Force two-norm initial, final = 2112.4623 42.476166
  Force max component initial, final = 608.22136 9.3161348
  Final line search alpha, max atom move = 0.0026960674 0.025116928
  Iterations, force evaluations = 1000 1842

reset_timestep 0

# initializing velocities
velocity all create 298.15 32

# rate of writing thermal properties to the log file
thermo_style custom step density temp press etotal
thermo_modify flush yes
thermo 100000

#################### 2) Initialize the NPT ensemble ####################
######### Go to the correct temperature now ant initiate that ##########
fix constrain all shake 1.0e-6 1000 0 b 1 a 1
       0 = # of size 2 clusters
       0 = # of size 3 clusters
       0 = # of size 4 clusters
     500 = # of frozen angles
  find clusters CPU = 0.001 seconds
fix integrate all npt temp 298.15 298.15 10.0 iso 1 1 100.0

# Initializing the whole system with very small timesteps in the NPT ensemble
timestep 0.001
run 10000
PPPM initialization ...
  extracting TIP4P info from pair style
  G vector (1/distance) = 0.31127036
  grid = 25 25 25
  stencil order = 5
  estimated absolute RMS force accuracy = 0.0034097995
  estimated relative force accuracy = 1.026851e-05
  3d grid and FFT values/proc = 6400 1875
Generated 0 of 6 mixed pair_coeff terms from arithmetic mixing rule
Step        Density          Temp          Press          TotEng
0   1.0219065      432.81576      1282264.9     -14267.536
Loop time of 42.8518 on 12 procs for 10000 steps with 1608 atoms

timestep 0.01
run 10000
PPPM initialization ...
  extracting TIP4P info from pair style
  G vector (1/distance) = 0.3114609
  grid = 25 25 25
  stencil order = 5
  estimated absolute RMS force accuracy = 0.0033829568
  estimated relative force accuracy = 1.0187674e-05
  3d grid and FFT values/proc = 6400 1875
Generated 0 of 6 mixed pair_coeff terms from arithmetic mixing rule
Step        Density          Temp          Press          TotEng
10000   1.030085       175.47613     -179047.46     -14468.942
Loop time of 42.6221 on 12 procs for 10000 steps with 1608 atoms

timestep 0.1
run 10000
PPPM initialization ...
  extracting TIP4P info from pair style
  G vector (1/distance) = 0.3116801
  grid = 25 25 25
  stencil order = 5
  estimated absolute RMS force accuracy = 0.003352316
  estimated relative force accuracy = 1.00954e-05
  3d grid and FFT values/proc = 6400 1875
Generated 0 of 6 mixed pair_coeff terms from arithmetic mixing rule
Step        Density          Temp          Press          TotEng
20000   1.0395842      298.14384     -17518.259     -13464.368
Loop time of 45.1026 on 12 procs for 10000 steps with 1608 atoms

timestep 0.2
run 10000
PPPM initialization ...
  extracting TIP4P info from pair style
  G vector (1/distance) = 0.30971566
  grid = 24 24 24
  stencil order = 5
  estimated absolute RMS force accuracy = 0.0038659555
  estimated relative force accuracy = 1.164221e-05
  3d grid and FFT values/proc = 5415 1152
Generated 0 of 6 mixed pair_coeff terms from arithmetic mixing rule
Step        Density          Temp          Press          TotEng
30000   1.0825313      290.48193      5508.2507     -13668.629
Loop time of 42.9012 on 12 procs for 10000 steps with 1608 atoms

timestep 0.5
run 10000
PPPM initialization ...
  extracting TIP4P info from pair style
  G vector (1/distance) = 0.31024698
  grid = 24 24 24
  stencil order = 5
  estimated absolute RMS force accuracy = 0.0037821256
  estimated relative force accuracy = 1.1389759e-05
  3d grid and FFT values/proc = 5415 1152
Generated 0 of 6 mixed pair_coeff terms from arithmetic mixing rule
Step        Density          Temp          Press          TotEng
40000   1.1066799      310.21511      1494.8142     -13745.06
Loop time of 44.1769 on 12 procs for 10000 steps with 1608 atoms

reset_timestep 0

# continuing the initialization with the final value of timestep
unfix integrate
fix integrate all npt temp 298.15 298.15 100.0 iso 1 1 1000.0

timestep 1

run 5000000
PPPM initialization ...
  extracting TIP4P info from pair style
  G vector (1/distance) = 0.31046107
  grid = 24 24 24
  stencil order = 5
  estimated absolute RMS force accuracy = 0.0037488231
  estimated relative force accuracy = 1.128947e-05
  3d grid and FFT values/proc = 5415 1152
Generated 0 of 6 mixed pair_coeff terms from arithmetic mixing rule
Step        Density          Temp          Press          TotEng
0   1.1165776      301.33832     -1005.1572     -13817.889
Averages over the last 26 of 51 rows, steps 2500000 to 5000000:
Density Temp Press TotEng
1.11634 295.845 -122.213 -13927.8
Loop time of 22835.5 on 12 procs for 5000000 steps with 1608 atoms

reset_timestep 0

#################### 3) Obtaining average volume in NPT ######################
# Creating restart files
restart 100000 1.restart 2.restart

# Getting the average volume of the system
variable Volume equal vol
fix VoluAve all ave/time 1 5000000 5000000 v_Volume file volume.dat

variable Dens equal density
fix DensAve all ave/time 1 50000 50000 v_Dens file density.dat

compute T1 all temp
fix TempAve1 all ave/time 1 50000 50000 c_T1 file temperatureNPT.dat

compute P1 all pressure T1
fix PressAve1 all ave/time 1 50000 50000 c_P1 file pressureNPT.dat

run 5000000
PPPM initialization ...
  extracting TIP4P info from pair style
  G vector (1/distance) = 0.31040812
  grid = 24 24 24
  stencil order = 5
  estimated absolute RMS force accuracy = 0.0037570331
  estimated relative force accuracy = 1.1314194e-05
  3d grid and FFT values/proc = 5415 1152
Generated 0 of 6 mixed pair_coeff terms from arithmetic mixing rule
Step        Density          Temp          Press          TotEng
0   1.114121       295.18002     -1173.8852     -13976.309
Averages over the last 26 of 51 rows, steps 2500000 to 5000000:
Density Temp Press TotEng
1.11218 299.097 136.442 -13915
Loop time of 23009.5 on 12 procs for 5000000 steps with 1608 atoms

#################### 4) Initializing the NVT ensemble ####################
# scaling the size of the system to the average volume
variable sidesize equal (f_VoluAve^(1.0/3.0))    # get the volume
variable xlow equal xlo
variable ylow equal ylo
variable zlow equal zlo
variable xhig equal (xlo+25.6302980187389)
variable yhig equal (ylo+25.6302980187389)
variable zhig equal (zlo+25.6302980187389)
change_box all x final 0.376123252676123 26.006421271415 y final 0.376123252676123 26.006421271415 z final 0.376123252676123 26.006421271415
Changing box ...
  orthogonal box = (0.37612325 0.37612325 0.37612325) to (26.006421 26.003386 26.003386)
  orthogonal box = (0.37612325 0.37612325 0.37612325) to (26.006421 26.006421 26.003386)
  orthogonal box = (0.37612325 0.37612325 0.37612325) to (26.006421 26.006421 26.006421)
unfix DensAve
unfix VoluAve
unfix TempAve1
unfix PressAve1

# changing the ensemble to NVT
unfix integrate
fix integrate all nvt temp 298.15 298.15 10.0

timestep 0.001
run 10000
PPPM initialization ...
  extracting TIP4P info from pair style
  G vector (1/distance) = 0.31040912
  grid = 24 24 24
  stencil order = 5
  estimated absolute RMS force accuracy = 0.003756879
  estimated relative force accuracy = 1.1313729e-05
  3d grid and FFT values/proc = 5415 1152
Generated 0 of 6 mixed pair_coeff terms from arithmetic mixing rule
Step        Density          Temp          Press          TotEng
5000000   1.114167       299.96098      74101.638     -13896.195
Loop time of 30.2086 on 12 procs for 10000 steps with 1608 atoms

timestep 0.01
run 10000
PPPM initialization ...
  extracting TIP4P info from pair style
  G vector (1/distance) = 0.31040912
  grid = 24 24 24
  stencil order = 5
  estimated absolute RMS force accuracy = 0.003756879
  estimated relative force accuracy = 1.1313729e-05
  3d grid and FFT values/proc = 5415 1152
Generated 0 of 6 mixed pair_coeff terms from arithmetic mixing rule
Step        Density          Temp          Press          TotEng
5010000   1.114167       301.05591      21.088044     -13911.258
Loop time of 30.1547 on 12 procs for 10000 steps with 1608 atoms

timestep 0.1
run 10000
PPPM initialization ...
  extracting TIP4P info from pair style
  G vector (1/distance) = 0.31040912
  grid = 24 24 24
  stencil order = 5
  estimated absolute RMS force accuracy = 0.003756879
  estimated relative force accuracy = 1.1313729e-05
  3d grid and FFT values/proc = 5415 1152
Generated 0 of 6 mixed pair_coeff terms from arithmetic mixing rule
Step        Density          Temp          Press          TotEng
5020000   1.114167       308.05053      453.81773     -13862.864
Loop time of 30.4809 on 12 procs for 10000 steps with 1608 atoms

timestep 0.2
run 10000
PPPM initialization ...
  extracting TIP4P info from pair style
  G vector (1/distance) = 0.31040912
  grid = 24 24 24
  stencil order = 5
  estimated absolute RMS force accuracy = 0.003756879
  estimated relative force accuracy = 1.1313729e-05
  3d grid and FFT values/proc = 5415 1152
Generated 0 of 6 mixed pair_coeff terms from arithmetic mixing rule
Step        Density          Temp          Press          TotEng
5030000   1.114167       309.75145     -79.215283     -13862.717
Loop time of 30.6308 on 12 procs for 10000 steps with 1608 atoms

timestep 0.5
run 10000
PPPM initialization ...
  extracting TIP4P info from pair style
  G vector (1/distance) = 0.31040912
  grid = 24 24 24
  stencil order = 5
  estimated absolute RMS force accuracy = 0.003756879
  estimated relative force accuracy = 1.1313729e-05
  3d grid and FFT values/proc = 5415 1152
Generated 0 of 6 mixed pair_coeff terms from arithmetic mixing rule
Step        Density          Temp          Press          TotEng
5040000   1.114167       295.83958      761.62697     -13900.452
Loop time of 31.0225 on 12 procs for 10000 steps with 1608 atoms

unfix integrate
fix integrate all nvt temp 298.15 298.15 100.0
# continuing the initialization with the final value of timestep
timestep 1

run 2500000
PPPM initialization ...
  extracting TIP4P info from pair style
  G vector (1/distance) = 0.31040912
  grid = 24 24 24
  stencil order = 5
  estimated absolute RMS force accuracy = 0.003756879
  estimated relative force accuracy = 1.1313729e-05
  3d grid and FFT values/proc = 5415 1152
Generated 0 of 6 mixed pair_coeff terms from arithmetic mixing rule
Step        Density          Temp          Press          TotEng
5050000   1.114167       300.88279     -1439.0257     -13921.537
Averages over the last 14 of 27 rows, steps 6300000 to 7550000:
Density Temp Press TotEng
1.11417 300.714 146.815 -13910.2
Loop time of 8017.43 on 12 procs for 2500000 steps with 1608 atoms

reset_timestep 0

#################### 2) Production in NVT ensemble #####################
# computing average total energy, pontential energy, temperature, and pressure over time
variable TotEn equal etotal
fix TEAve all ave/time 1 100000 100000 v_TotEn file TotalE.dat

variable PotEn equal pe
fix PEAve all ave/time 1 100000 100000 v_PotEn file PotenE.dat

compute T all temp
fix TempAve all ave/time 1 100000 100000 c_T file temperature.dat

compute P all pressure T
fix PressAve all ave/time 1 100000 100000 c_P file pressure.dat

# computing self-diffusion and Onsager coefficients using the OCTP plugin
compute positions all position
fix f1 all ordern diffusivity 1000 100000 c_positions nb 10 nbe 20

# computing shear and bulk viscosities  using the OCTP plugin
fix f2 all ordern viscosity 5 100000 c_P nb 10 nbe 20

# computing thermal conductivity using the OCTP plugin
compute KE all ke/atom
compute PE all pe/atom
compute ST all stress/atom NULL virial
compute heatflux all heat/flux KE PE ST
fix f3 all ordern thermalconductivity 5 100000 c_heatflux nb 10 nbe 20

# computing the RDF for all group pairs
compute rdfs all rdf/ext Nbin 2000 Nwrite 1000
fix f4 all ave/time 1 1 1000 c_rdfs

dump trjectory all xyz 100000 movie.xyz
dump_modify trjectory element Ow H K Cl

run 250000

CITE-CITE-CITE-CITE-CITE-CITE-CITE-CITE-CITE-CITE-CITE-CITE-CITE

Your simulation uses code contributions which should be cited:

- fix ave/ordern command:

@Article{Jamali2019,
 author = {Jamali, Seyed Hossein and Wolf, Ludger and Becker, Tim M. and de Groen, Maritte and Ramdin, Mahinder and Hartkamp, Remco and Bardow, Andr and Vlugt, Thijs J. H. and Moultos, Othonas A.},
 title = {OCTP: A Tool for On-the-Fly Calculation of Transport Properties of Fluids with the Order-n Algorithm in LAMMPS},
 doi = {10.1021/acs.jcim.8b00939},
 journal = {J. Chem. Inf. Model.},
 year = {2019},
 volume = {59},
 pages = {1290-1294}
 }

CITE-CITE-CITE-CITE-CITE-CITE-CITE-CITE-CITE-CITE-CITE-CITE-CITE

PPPM initialization ...
  extracting TIP4P info from pair style
  G vector (1/distance) = 0.31040912
  grid = 24 24 24
  stencil order = 5
  estimated absolute RMS force accuracy = 0.003756879
  estimated relative force accuracy = 1.1313729e-05
  3d grid and FFT values/proc = 5415 1152
Generated 0 of 6 mixed pair_coeff terms from arithmetic mixing rule
Step        Density          Temp          Press          TotEng
0   1.114167       291.69609      539.07015     -13904.992
Loop time of 1272.42 on 12 procs for 250000 steps with 1608 atoms

shell bash copy_files.sh dt_1 00.25Mstep

run 250000
PPPM initialization ...
  extracting TIP4P info from pair style
  G vector (1/distance) = 0.31040912
  grid = 24 24 24
  stencil order = 5
  estimated absolute RMS force accuracy = 0.003756879
  estimated relative force accuracy = 1.1313729e-05
  3d grid and FFT values/proc = 5415 1152
Generated 0 of 6 mixed pair_coeff terms from arithmetic mixing rule
Step        Density          Temp          Press          TotEng
250000   1.114167       295.79677     -357.38322     -14023.746
Loop time of 1274.42 on 12 procs for 250000 steps with 1608 atoms

shell bash copy_files.sh dt_1 00.50Mstep

run 250000
PPPM initialization ...
  extracting TIP4P info from pair style
  G vector (1/distance) = 0.31040912
  grid = 24 24 24
  stencil order = 5
  estimated absolute RMS force accuracy = 0.003756879
  estimated relative force accuracy = 1.1313729e-05
  3d grid and FFT values/proc = 5415 1152
Generated 0 of 6 mixed pair_coeff terms from arithmetic mixing rule
Step        Density          Temp          Press          TotEng
500000   1.114167       294.24965      655.95186     -13920.062
Loop time of 1272.25 on 12 procs for 250000 steps with 1608 atoms

shell bash copy_files.sh dt_1 00.75Mstep

run 250000
PPPM initialization ...
  extracting TIP4P info from pair style
  G vector (1/distance) = 0.31040912
  grid = 24 24 24
  stencil order = 5
  estimated absolute RMS force accuracy = 0.003756879
  estimated relative force accuracy = 1.1313729e-05
  3d grid and FFT values/proc = 5415 1152
Generated 0 of 6 mixed pair_coeff terms from arithmetic mixing rule
Step        Density          Temp          Press          TotEng
750000   1.114167       287.02972     -1257.1821     -13971.354
Loop time of 1271.19 on 12 procs for 250000 steps with 1608 atoms

shell bash copy_files.sh dt_1 01.00Mstep

run 250000
PPPM initialization ...
  extracting TIP4P info from pair style
  G vector (1/distance) = 0.31040912
  grid = 24 24 24
  stencil order = 5
  estimated absolute RMS force accuracy = 0.003756879
  estimated relative force accuracy = 1.1313729e-05
  3d grid and FFT values/proc = 5415 1152
Generated 0 of 6 mixed pair_coeff terms from arithmetic mixing rule
Step        Density          Temp          Press          TotEng
1000000   1.114167       289.77199      655.45445     -14033.931
Loop time of 1280.03 on 12 procs for 250000 steps with 1608 atoms

shell bash copy_files.sh dt_1 01.25Mstep

run 250000
PPPM initialization ...
  extracting TIP4P info from pair style
  G vector (1/distance) = 0.31040912
  grid = 24 24 24
  stencil order = 5
  estimated absolute RMS force accuracy = 0.003756879
  estimated relative force accuracy = 1.1313729e-05
  3d grid and FFT values/proc = 5415 1152
Generated 0 of 6 mixed pair_coeff terms from arithmetic mixing rule
Step        Density          Temp          Press          TotEng
1250000   1.114167       308.18238      1033.8346     -13813.394
Loop time of 1279.86 on 12 procs for 250000 steps with 1608 atoms

shell bash copy_files.sh dt_1 01.50Mstep

run 250000
PPPM initialization ...
  extracting TIP4P info from pair style
  G vector (1/distance) = 0.31040912
  grid = 24 24 24
  stencil order = 5
  estimated absolute RMS force accuracy = 0.003756879
  estimated relative force accuracy = 1.1313729e-05
  3d grid and FFT values/proc = 5415 1152
Generated 0 of 6 mixed pair_coeff terms from arithmetic mixing rule
Step        Density          Temp          Press          TotEng
1500000   1.114167       300.82107     -1883.837      -13955.639
Loop time of 1275.21 on 12 procs for 250000 steps with 1608 atoms

shell bash copy_files.sh dt_1 01.75Mstep

run 250000
PPPM initialization ...
  extracting TIP4P info from pair style
  G vector (1/distance) = 0.31040912
  grid = 24 24 24
  stencil order = 5
  estimated absolute RMS force accuracy = 0.003756879
  estimated relative force accuracy = 1.1313729e-05
  3d grid and FFT values/proc = 5415 1152
Generated 0 of 6 mixed pair_coeff terms from arithmetic mixing rule
Step        Density          Temp          Press          TotEng
1750000   1.114167       298.28153     -298.59536     -13920.246
Loop time of 1270.61 on 12 procs for 250000 steps with 1608 atoms

shell bash copy_files.sh dt_1 02.00step

run 1000000
PPPM initialization ...
  extracting TIP4P info from pair style
  G vector (1/distance) = 0.31040912
  grid = 24 24 24
  stencil order = 5
  estimated absolute RMS force accuracy = 0.003756879
  estimated relative force accuracy = 1.1313729e-05
  3d grid and FFT values/proc = 5415 1152
Generated 0 of 6 mixed pair_coeff terms from arithmetic mixing rule
Step        Density          Temp          Press          TotEng
2000000   1.114167       291.24511     -181.31601     -13903.923
Averages over the last 6 of 11 rows, steps 2500000 to 3000000:
Density Temp Press TotEng
1.11417 299.306 -99.7927 -13929.7
Loop time of 5080 on 12 procs for 1000000 steps with 1608 atoms

shell bash copy_files.sh dt_1 03.00Mstep

run 1000000
PPPM initialization ...
  extracting TIP4P info from pair style
  G vector (1/distance) = 0.31040912
  grid = 24 24 24
  stencil order = 5
  estimated absolute RMS force accuracy = 0.003756879
  estimated relative force accuracy = 1.1313729e-05
  3d grid and FFT values/proc = 5415 1152
Generated 0 of 6 mixed pair_coeff terms from arithmetic mixing rule
Step        Density          Temp          Press          TotEng
3000000   1.114167       291.25572      252.6757      -14004.247
Averages over the last 6 of 11 rows, steps 3500000 to 4000000:
Density Temp Press TotEng
1.11417 295.978 18.7419 -13934.7
Loop time of 5090.92 on 12 procs for 1000000 steps with 1608 atoms

shell bash copy_files.sh dt_1 04.00Mstep

run 1000000
PPPM initialization ...
  extracting TIP4P info from pair style
  G vector (1/distance) = 0.31040912
  grid = 24 24 24
  stencil order = 5
  estimated absolute RMS force accuracy = 0.003756879
  estimated relative force accuracy = 1.1313729e-05
  3d grid and FFT values/proc = 5415 1152
Generated 0 of 6 mixed pair_coeff terms from arithmetic mixing rule
Step        Density          Temp          Press          TotEng
4000000   1.114167       292.10582     -171.99945     -13944.092
Averages over the last 6 of 11 rows, steps 4500000 to 5000000:
Density Temp Press TotEng
1.11417 295.177 152.195 -13941.9
Loop time of 5094.4 on 12 procs for 1000000 steps with 1608 atoms

shell bash copy_files.sh dt_1 05.00Mstep

run 1000000
PPPM initialization ...
  extracting TIP4P info from pair style
  G vector (1/distance) = 0.31040912
  grid = 24 24 24
  stencil order = 5
  estimated absolute RMS force accuracy = 0.003756879
  estimated relative force accuracy = 1.1313729e-05
  3d grid and FFT values/proc = 5415 1152
Generated 0 of 6 mixed pair_coeff terms from arithmetic mixing rule
Step        Density          Temp          Press          TotEng
5000000   1.114167       314.87555      85.121475     -13893.699
Averages over the last 6 of 11 rows, steps 5500000 to 6000000:
Density Temp Press TotEng
1.11417 300.501 695.799 -13932
Loop time of 5078.48 on 12 procs for 1000000 steps with 1608 atoms

shell bash copy_files.sh dt_1 06.00Mstep

run 1000000
PPPM initialization ...
  extracting TIP4P info from pair style
  G vector (1/distance) = 0.31040912
  grid = 24 24 24
  stencil order = 5
  estimated absolute RMS force accuracy = 0.003756879
  estimated relative force accuracy = 1.1313729e-05
  3d grid and FFT values/proc = 5415 1152
Generated 0 of 6 mixed pair_coeff terms from arithmetic mixing rule
Step        Density          Temp          Press          TotEng
6000000   1.114167       302.86747      994.85787     -13955.969
Averages over the last 6 of 11 rows, steps 6500000 to 7000000:
Density Temp Press TotEng
1.11417 297.887 -56.799 -13905.5
Loop time of 5072.33 on 12 procs for 1000000 steps with 1608 atoms

shell bash copy_files.sh dt_1 07.00Mstep

run 1000000
PPPM initialization ...
  extracting TIP4P info from pair style
  G vector (1/distance) = 0.31040912
  grid = 24 24 24
  stencil order = 5
  estimated absolute RMS force accuracy = 0.003756879
  estimated relative force accuracy = 1.1313729e-05
  3d grid and FFT values/proc = 5415 1152
Generated 0 of 6 mixed pair_coeff terms from arithmetic mixing rule
Step        Density          Temp          Press          TotEng
7000000   1.114167       298.7277       276.74467     -13900.666
Averages over the last 6 of 11 rows, steps 7500000 to 8000000:
Density Temp Press TotEng
1.11417 294.577 -338.197 -13938.5
Loop time of 5084.15 on 12 procs for 1000000 steps with 1608 atoms

shell bash copy_files.sh dt_1 08.00Mstep

run 1000000
PPPM initialization ...
  extracting TIP4P info from pair style
  G vector (1/distance) = 0.31040912
  grid = 24 24 24
  stencil order = 5
  estimated absolute RMS force accuracy = 0.003756879
  estimated relative force accuracy = 1.1313729e-05
  3d grid and FFT values/proc = 5415 1152
Generated 0 of 6 mixed pair_coeff terms from arithmetic mixing rule
Step        Density          Temp          Press          TotEng
8000000   1.114167       296.4094       315.81028     -13969.132
Averages over the last 6 of 11 rows, steps 8500000 to 9000000:
Density Temp Press TotEng
1.11417 296.909 158.767 -13908.4
Loop time of 5091.16 on 12 procs for 1000000 steps with 1608 atoms

shell bash copy_files.sh dt_1 09.00Mstep

run 1000000
PPPM initialization ...
  extracting TIP4P info from pair style
  G vector (1/distance) = 0.31040912
  grid = 24 24 24
  stencil order = 5
  estimated absolute RMS force accuracy = 0.003756879
  estimated relative force accuracy = 1.1313729e-05
  3d grid and FFT values/proc = 5415 1152
Generated 0 of 6 mixed pair_coeff terms from arithmetic mixing rule
Step        Density          Temp          Press          TotEng
9000000   1.114167       291.74111     -287.41015     -13954.757
Averages over the last 6 of 11 rows, steps 9500000 to 10000000:
Density Temp Press TotEng
1.11417 294.669 -93.9744 -13912.6
Loop time of 5091.73 on 12 procs for 1000000 steps with 1608 atoms

shell bash copy_files.sh dt_1 10.00Mstep

run 2500000
PPPM initialization ...
  extracting TIP4P info from pair style
  G vector (1/distance) = 0.31040912
  grid = 24 24 24
  stencil order = 5
  estimated absolute RMS force accuracy = 0.003756879
  estimated relative force accuracy = 1.1313729e-05
  3d grid and FFT values/proc = 5415 1152
Generated 0 of 6 mixed pair_coeff terms from arithmetic mixing rule
Step        Density          Temp          Press          TotEng
10000000   1.114167       289.9081       552.79354     -13912.232
Averages over the last 13 of 26 rows, steps 11300000 to 12500000:
Density Temp Press TotEng
1.11417 296.557 160.881 -13929.6
Loop time of 12704.4 on 12 procs for 2500000 steps with 1608 atoms

shell bash copy_files.sh dt_1 12.50Mstep

run 2500000
PPPM initialization ...
  extracting TIP4P info from pair style
  G vector (1/distance) = 0.31040912
  grid = 24 24 24
  stencil order = 5
  estimated absolute RMS force accuracy = 0.003756879
  estimated relative force accuracy = 1.1313729e-05
  3d grid and FFT values/proc = 5415 1152
Generated 0 of 6 mixed pair_coeff terms from arithmetic mixing rule
Step        Density          Temp          Press          TotEng
12500000   1.114167       301.98288      1339.9885     -13889.138
Averages over the last 13 of 26 rows, steps 13800000 to 15000000:
Density Temp Press TotEng
1.11417 295.468 16.2161 -13926
Loop time of 12724.9 on 12 procs for 2500000 steps with 1608 atoms

shell bash copy_files.sh dt_1 15.00Mstep

run 2500000
PPPM initialization ...
  extracting TIP4P info from pair style
  G vector (1/distance) = 0.31040912
  grid = 24 24 24
  stencil order = 5
  estimated absolute RMS force accuracy = 0.003756879
  estimated relative force accuracy = 1.1313729e-05
  3d grid and FFT values/proc = 5415 1152
Generated 0 of 6 mixed pair_coeff terms from arithmetic mixing rule
Step        Density          Temp          Press          TotEng
15000000   1.114167       290.28529      231.89234     -13937.78
Averages over the last 13 of 26 rows, steps 16300000 to 17500000:
Density Temp Press TotEng
1.11417 299.247 -31.7841 -13932.4
Loop time of 12700.4 on 12 procs for 2500000 steps with 1608 atoms

shell bash copy_files.sh dt_1 17.50Mstep

run 2500000
PPPM initialization ...
  extracting TIP4P info from pair style
  G vector (1/distance) = 0.31040912
  grid = 24 24 24
  stencil order = 5
  estimated absolute RMS force accuracy = 0.003756879
  estimated relative force accuracy = 1.1313729e-05
  3d grid and FFT values/proc = 5415 1152
Generated 0 of 6 mixed pair_coeff terms from arithmetic mixing rule
Step        Density          Temp          Press          TotEng
17500000   1.114167       294.37052     -47.353459     -13948.507
Averages over the last 13 of 26 rows, steps 18800000 to 20000000:
Density Temp Press TotEng
1.11417 299.431 -147.69 -13909.7
Loop time of 12722.2 on 12 procs for 2500000 steps with 1608 atoms

shell bash copy_files.sh dt_1 20.00Mstep

run 5000000
PPPM initialization ...
  extracting TIP4P info from pair style
  G vector (1/distance) = 0.31040912
  grid = 24 24 24
  stencil order = 5
  estimated absolute RMS force accuracy = 0.003756879
  estimated relative force accuracy = 1.1313729e-05
  3d grid and FFT values/proc = 5415 1152
Generated 0 of 6 mixed pair_coeff terms from arithmetic mixing rule
Step        Density          Temp          Press          TotEng
20000000   1.114167       301.62704     -223.24803     -13960.302
Averages over the last 26 of 51 rows, steps 22500000 to 25000000:
Density Temp Press TotEng
1.11417 299.653 -117.817 -13909.2
Loop time of 25527.9 on 12 procs for 5000000 steps with 1608 atoms

shell bash copy_files.sh dt_1 25.00Mstep

run 5000000
PPPM initialization ...
  extracting TIP4P info from pair style
  G vector (1/distance) = 0.31040912
  grid = 24 24 24
  stencil order = 5
  estimated absolute RMS force accuracy = 0.003756879
  estimated relative force accuracy = 1.1313729e-05
  3d grid and FFT values/proc = 5415 1152
Generated 0 of 6 mixed pair_coeff terms from arithmetic mixing rule
Step        Density          Temp          Press          TotEng
25000000   1.114167       299.75983     -745.62647     -13887.585
Averages over the last 26 of 51 rows, steps 27500000 to 30000000:
Density Temp Press TotEng
1.11417 297.604 -141.431 -13918.4
Loop time of 25432.4 on 12 procs for 5000000 steps with 1608 atoms

shell bash copy_files.sh dt_1 30.00Mstep

run 5000000
PPPM initialization ...
  extracting TIP4P info from pair style
  G vector (1/distance) = 0.31040912
  grid = 24 24 24
  stencil order = 5
  estimated absolute RMS force accuracy = 0.003756879
  estimated relative force accuracy = 1.1313729e-05
  3d grid and FFT values/proc = 5415 1152
Generated 0 of 6 mixed pair_coeff terms from arithmetic mixing rule
Step        Density          Temp          Press          TotEng
30000000   1.114167       302.16162      185.05522     -13901.976
Averages over the last 26 of 51 rows, steps 32500000 to 35000000:
Density Temp Press TotEng
1.11417 296.597 2.83313 -13930.4
Loop time of 25426 on 12 procs for 5000000 steps with 1608 atoms

shell bash copy_files.sh dt_1 35.00Mstep

run 5000000
PPPM initialization ...
  extracting TIP4P info from pair style
  G vector (1/distance) = 0.31040912
  grid = 24 24 24
  stencil order = 5
  estimated absolute RMS force accuracy = 0.003756879
  estimated relative force accuracy = 1.1313729e-05
  3d grid and FFT values/proc = 5415 1152
Generated 0 of 6 mixed pair_coeff terms from arithmetic mixing rule
Step        Density          Temp          Press          TotEng
35000000   1.114167       299.29564     -287.37974     -13859.573
Averages over the last 26 of 51 rows, steps 37500000 to 40000000:
Density Temp Press TotEng
1.11417 298.463 -145.112 -13915.6
Loop time of 25430.2 on 12 procs for 5000000 steps with 1608 atoms
