LAMMPS (23 Jun 2022 - Update 2)
####################################################
# Preprocessing Li2SO4 in water
#################### SETTING UP ####################
units real
dimension 3
newton on
boundary p p p
atom_style full

#################### VARIABLES ####################
variable Temp equal 298.15    # Temperature in K
variable Pres equal 1    # Pressure in atm.

variable RandomSeed equal 35 # The random seed for velocity
variable tstep equal 1 # timestep in fs

#################### NPT ####################
variable Ninptpre equal 10000 # Pre-initialize the NPT ensemble (very small timesteps)
variable Ninpt equal 5000000  # Initialize the NPT ensemble
variable Npnpt equal 5000000  # Production in the NPT ensemble (volume)

#################### NVT ####################
variable Ninvtpre equal 10000  # Pre-initialize the NVT ensemble (very small timesteps)
variable Ninvt equal 2500000   # Initialize the NVT ensemble 2.5Mstep
variable Nrun1 equal 250000  # production in the NVT ensemble (Transport properties)
variable Nrun2 equal 1000000  # production in the NVT ensemble (Transport properties)
variable Nrun3 equal 2500000  # production in the NVT ensemble (Transport properties)
variable Nrun4 equal 5000000  # production in the NVT ensemble (Transport properties)

variable Nf equal 100000      # Nfreq (fix ave/time and thermo)
variable Ne equal  1          # Nevery (fix ave/time)
variable Nr equal 100000/1
variable Nd equal 100000
variable NBR equal 5000000/100

variable nb equal 10          # Number of blocks (fix ordern)
variable nbe equal 20         # Number of block elements (fix ordern)
variable Nvisc equal 5        # Nevery for viscosity (fix ordern: sample data at (Nvisc*2))
variable Ncond equal 5        # Nevery for Tconductivity (fix ordern: sample data at (Ncond*2))
variable Ndiff equal 1000     # Nevery for diffusivity (fix ordern: sample data at (Ndiff))
variable Nwrit equal 100000   # Nwrite for transport properties (fix ordern: write every (Nwrit))

variable Nrdfe equal 1000     # Nevery for RDF (fix ave/time)
variable Nrdfw equal 1000     # Nwrite for RDF (compute rdf/ext: write every (Nrdfw*Nrdfe))
variable binnum equal 2000    # Number of bins for RDF

#################### ATOM DEFINITION and FORCEFIELD ####################
read_data ./data.lmp                     # read the positions
Reading data file ...
  orthogonal box = (0 0 0) to (26.379509 26.379509 26.379509)
  reading atoms ...
  1608 atoms
  scanning bonds ...
  scanning angles ...
  reading bonds ...
  1000 bonds
  reading angles ...
  500 angles
Finding 1-2 1-3 1-4 neighbors ...
     2 = max # of 1-2 neighbors
     1 = max # of 1-3 neighbors
     1 = max # of 1-4 neighbors
     2 = max # of special neighbors
include ./forcefield.data                # read the force field
#--------INTERMOLECULAR POTENTIAL -------------------#
# --------Developed for MadridT KCl + TIP4P/2005-----#

mass 1 15.9994	# Ow
mass 2 1.008	# Hw
mass 3 6.941	# Li
mass 4 35.453	# Cl

pair_style lj/cut/tip4p/long 1 2 1 1 0.1546 10.0
kspace_style pppm/tip4p 1.0e-5
pair_modify mix arithmetic tail yes # ATC and Lorentz-Berthelot combining rules

#-----------------Combinations----------------------------
# atomtype atomtype epsilon sigma

pair_coeff 1 1 0.185200 3.15890    # Ow-Ow
pair_coeff 1 2 0.000000 0.00000    # Ow-Hw
pair_coeff 1 3 0.167459 2.12000    # Ow-Li
pair_coeff 1 4 0.014814 4.23867    # Ow-Cl

pair_coeff 2 2 0.000000 0.00000    # Hw-Hw
pair_coeff 2 3 0.000000 0.00000    # Hw-K
pair_coeff 2 4 0.000000 0.00000    # Hw-Cl

pair_coeff 3 3 0.103989 1.43970    # Li-Li
pair_coeff 3 4 0.306631 2.70000    # Li-Cl

pair_coeff 4 4 0.018385 4.69906    # Cl-Cl

bond_style  harmonic
bond_coeff 1 2000 0.9572           # Ow-Hw

angle_style harmonic
angle_coeff 1 200 104.52           # H-Ow-H

#dihedral_style none
#improper_style none

set type 1 charge -1.1128          # O
Setting atom values ...
  500 settings made for charge
set type 2 charge +0.5564          # OH
Setting atom values ...
  1000 settings made for charge
set type 3 charge +0.8500          # Li
Setting atom values ...
  54 settings made for charge
set type 4 charge -0.8500          # Cl
Setting atom values ...
  54 settings made for charge

#################### INITIALIZATION ####################
group wat type 1		# O water
500 atoms in group wat
group Li type 3			# Potasium ion
54 atoms in group Li
group Cl type 4			# Chlorine ion
54 atoms in group Cl

# neigbor lists
neighbor 2.0 bin
neigh_modify every 1 delay 0 check yes

# velocity-Verlet integrator
run_style verlet

# minimizing the system using the conjugate gradient method
min_style cg
min_modify dmax 0.05
minimize 1.0e-6 1.0e-6 1000 10000
PPPM initialization ...
  extracting TIP4P info from pair style
  G vector (1/distance) = 0.31127036
  grid = 25 25 25
  stencil order = 5
  estimated absolute RMS force accuracy = 0.0034097995
  estimated relative force accuracy = 1.026851e-05
  3d grid and FFT values/proc = 6400 1875
Generated 0 of 6 mixed pair_coeff terms from arithmetic mixing rule
  update every 1 steps, delay 0 steps, check yes
Step          Temp          E_pair         E_mol          TotEng         Press
0   0              641.68376      3.1566538e-05  641.68379      52703.279
Loop time of 5.93765 on 12 procs for 1000 steps with 1608 atoms

Minimization stats:
  Stopping criterion = max iterations
  Energy initial, next-to-last, final =
  Force two-norm initial, final = 2112.4623 42.476166
  Force max component initial, final = 608.22136 9.3161348
  Final line search alpha, max atom move = 0.0026960674 0.025116928
  Iterations, force evaluations = 1000 1842

reset_timestep 0

# initializing velocities
velocity all create 298.15 35

# rate of writing thermal properties to the log file
thermo_style custom step density temp press etotal
thermo_modify flush yes
thermo 100000

#################### 2) Initialize the NPT ensemble ####################
######### Go to the correct temperature now ant initiate that ##########
fix constrain all shake 1.0e-6 1000 0 b 1 a 1
       0 = # of size 2 clusters
       0 = # of size 3 clusters
       0 = # of size 4 clusters
     500 = # of frozen angles
  find clusters CPU = 0.001 seconds
fix integrate all npt temp 298.15 298.15 10.0 iso 1 1 100.0

# Initializing the whole system with very small timesteps in the NPT ensemble
timestep 0.001
run 10000
PPPM initialization ...
  extracting TIP4P info from pair style
  G vector (1/distance) = 0.31127036
  grid = 25 25 25
  stencil order = 5
  estimated absolute RMS force accuracy = 0.0034097995
  estimated relative force accuracy = 1.026851e-05
  3d grid and FFT values/proc = 6400 1875
Generated 0 of 6 mixed pair_coeff terms from arithmetic mixing rule
Step        Density          Temp          Press          TotEng
0   1.0219065      432.81576      481746.59     -14267.536
Loop time of 42.7804 on 12 procs for 10000 steps with 1608 atoms

timestep 0.01
run 10000
PPPM initialization ...
  extracting TIP4P info from pair style
  G vector (1/distance) = 0.31146595
  grid = 25 25 25
  stencil order = 5
  estimated absolute RMS force accuracy = 0.003382248
  estimated relative force accuracy = 1.0185539e-05
  3d grid and FFT values/proc = 6400 1875
Generated 0 of 6 mixed pair_coeff terms from arithmetic mixing rule
Step        Density          Temp          Press          TotEng
10000   1.0303027      174.59395     -178467.39     -14484.409
Loop time of 42.8914 on 12 procs for 10000 steps with 1608 atoms

timestep 0.1
run 10000
PPPM initialization ...
  extracting TIP4P info from pair style
  G vector (1/distance) = 0.31131039
  grid = 25 25 25
  stencil order = 5
  estimated absolute RMS force accuracy = 0.0034041444
  estimated relative force accuracy = 1.025148e-05
  3d grid and FFT values/proc = 6400 1875
Generated 0 of 6 mixed pair_coeff terms from arithmetic mixing rule
Step        Density          Temp          Press          TotEng
20000   1.0236185      300.15795     -14174.131     -13428.346
Loop time of 45.4221 on 12 procs for 10000 steps with 1608 atoms

timestep 0.2
run 10000
PPPM initialization ...
  extracting TIP4P info from pair style
  G vector (1/distance) = 0.30983847
  grid = 24 24 24
  stencil order = 5
  estimated absolute RMS force accuracy = 0.0038464283
  estimated relative force accuracy = 1.1583404e-05
  3d grid and FFT values/proc = 5415 1152
Generated 0 of 6 mixed pair_coeff terms from arithmetic mixing rule
Step        Density          Temp          Press          TotEng
30000   1.088061       302.32409     -1096.1436     -13564.75
Loop time of 44.065 on 12 procs for 10000 steps with 1608 atoms

timestep 0.5
run 10000
PPPM initialization ...
  extracting TIP4P info from pair style
  G vector (1/distance) = 0.30994465
  grid = 24 24 24
  stencil order = 5
  estimated absolute RMS force accuracy = 0.0038296173
  estimated relative force accuracy = 1.1532779e-05
  3d grid and FFT values/proc = 5415 1152
Generated 0 of 6 mixed pair_coeff terms from arithmetic mixing rule
Step        Density          Temp          Press          TotEng
40000   1.0928674      292.17874     -876.41458     -13680.726
Loop time of 44.3987 on 12 procs for 10000 steps with 1608 atoms

reset_timestep 0

# continuing the initialization with the final value of timestep
unfix integrate
fix integrate all npt temp 298.15 298.15 100.0 iso 1 1 1000.0

timestep 1

run 5000000
PPPM initialization ...
  extracting TIP4P info from pair style
  G vector (1/distance) = 0.31064141
  grid = 24 24 24
  stencil order = 5
  estimated absolute RMS force accuracy = 0.0037209808
  estimated relative force accuracy = 1.1205623e-05
  3d grid and FFT values/proc = 5415 1152
Generated 0 of 6 mixed pair_coeff terms from arithmetic mixing rule
Step        Density          Temp          Press          TotEng
0   1.1249907      292.39034      692.04884     -13814.349
Averages over the last 26 of 51 rows, steps 2500000 to 5000000:
Density Temp Press TotEng
1.1121 298.29 91.6937 -13932.2
Loop time of 22931.7 on 12 procs for 5000000 steps with 1608 atoms

reset_timestep 0

#################### 3) Obtaining average volume in NPT ######################
# Creating restart files
restart 100000 1.restart 2.restart

# Getting the average volume of the system
variable Volume equal vol
fix VoluAve all ave/time 1 5000000 5000000 v_Volume file volume.dat

variable Dens equal density
fix DensAve all ave/time 1 50000 50000 v_Dens file density.dat

compute T1 all temp
fix TempAve1 all ave/time 1 50000 50000 c_T1 file temperatureNPT.dat

compute P1 all pressure T1
fix PressAve1 all ave/time 1 50000 50000 c_P1 file pressureNPT.dat

run 5000000
PPPM initialization ...
  extracting TIP4P info from pair style
  G vector (1/distance) = 0.31021786
  grid = 24 24 24
  stencil order = 5
  estimated absolute RMS force accuracy = 0.0037866758
  estimated relative force accuracy = 1.1403462e-05
  3d grid and FFT values/proc = 5415 1152
Generated 0 of 6 mixed pair_coeff terms from arithmetic mixing rule
Step        Density          Temp          Press          TotEng
0   1.1053413      300.70163      28.465017     -13912.774
Averages over the last 26 of 51 rows, steps 2500000 to 5000000:
Density Temp Press TotEng
1.11336 296.56 84.7401 -13925.1
Loop time of 23074.3 on 12 procs for 5000000 steps with 1608 atoms

#################### 4) Initializing the NVT ensemble ####################
# scaling the size of the system to the average volume
variable sidesize equal (f_VoluAve^(1.0/3.0))    # get the volume
variable xlow equal xlo
variable ylow equal ylo
variable zlow equal zlo
variable xhig equal (xlo+25.62752732978)
variable yhig equal (ylo+25.62752732978)
variable zhig equal (zlo+25.62752732978)
change_box all x final 0.36044437188141 25.9879717016614 y final 0.36044437188141 25.9879717016614 z final 0.36044437188141 25.9879717016614
Changing box ...
  orthogonal box = (0.36044437 0.36044437 0.36044437) to (25.987972 26.019065 26.019065)
  orthogonal box = (0.36044437 0.36044437 0.36044437) to (25.987972 25.987972 26.019065)
  orthogonal box = (0.36044437 0.36044437 0.36044437) to (25.987972 25.987972 25.987972)
unfix DensAve
unfix VoluAve
unfix TempAve1
unfix PressAve1

# changing the ensemble to NVT
unfix integrate
fix integrate all nvt temp 298.15 298.15 10.0

timestep 0.001
run 10000
PPPM initialization ...
  extracting TIP4P info from pair style
  G vector (1/distance) = 0.31041691
  grid = 24 24 24
  stencil order = 5
  estimated absolute RMS force accuracy = 0.003755669
  estimated relative force accuracy = 1.1310086e-05
  3d grid and FFT values/proc = 5415 1152
Generated 0 of 6 mixed pair_coeff terms from arithmetic mixing rule
Step        Density          Temp          Press          TotEng
5000000   1.1145284      310.61386      3436.8558     -13811.251
Loop time of 29.9055 on 12 procs for 10000 steps with 1608 atoms

timestep 0.01
run 10000
PPPM initialization ...
  extracting TIP4P info from pair style
  G vector (1/distance) = 0.31041691
  grid = 24 24 24
  stencil order = 5
  estimated absolute RMS force accuracy = 0.003755669
  estimated relative force accuracy = 1.1310086e-05
  3d grid and FFT values/proc = 5415 1152
Generated 0 of 6 mixed pair_coeff terms from arithmetic mixing rule
Step        Density          Temp          Press          TotEng
5010000   1.1145284      303.73123      1089.3339     -13861.441
Loop time of 30.0071 on 12 procs for 10000 steps with 1608 atoms

timestep 0.1
run 10000
PPPM initialization ...
  extracting TIP4P info from pair style
  G vector (1/distance) = 0.31041691
  grid = 24 24 24
  stencil order = 5
  estimated absolute RMS force accuracy = 0.003755669
  estimated relative force accuracy = 1.1310086e-05
  3d grid and FFT values/proc = 5415 1152
Generated 0 of 6 mixed pair_coeff terms from arithmetic mixing rule
Step        Density          Temp          Press          TotEng
5020000   1.1145284      292.89953      532.1645      -13941.306
Loop time of 31.5301 on 12 procs for 10000 steps with 1608 atoms

timestep 0.2
run 10000
PPPM initialization ...
  extracting TIP4P info from pair style
  G vector (1/distance) = 0.31041691
  grid = 24 24 24
  stencil order = 5
  estimated absolute RMS force accuracy = 0.003755669
  estimated relative force accuracy = 1.1310086e-05
  3d grid and FFT values/proc = 5415 1152
Generated 0 of 6 mixed pair_coeff terms from arithmetic mixing rule
Step        Density          Temp          Press          TotEng
5030000   1.1145284      291.56974      869.66571     -13929.221
Loop time of 31.6802 on 12 procs for 10000 steps with 1608 atoms

timestep 0.5
run 10000
PPPM initialization ...
  extracting TIP4P info from pair style
  G vector (1/distance) = 0.31041691
  grid = 24 24 24
  stencil order = 5
  estimated absolute RMS force accuracy = 0.003755669
  estimated relative force accuracy = 1.1310086e-05
  3d grid and FFT values/proc = 5415 1152
Generated 0 of 6 mixed pair_coeff terms from arithmetic mixing rule
Step        Density          Temp          Press          TotEng
5040000   1.1145284      306.96468     -477.52941     -13905.491
Loop time of 31.6944 on 12 procs for 10000 steps with 1608 atoms

unfix integrate
fix integrate all nvt temp 298.15 298.15 100.0
# continuing the initialization with the final value of timestep
timestep 1

run 2500000
PPPM initialization ...
  extracting TIP4P info from pair style
  G vector (1/distance) = 0.31041691
  grid = 24 24 24
  stencil order = 5
  estimated absolute RMS force accuracy = 0.003755669
  estimated relative force accuracy = 1.1310086e-05
  3d grid and FFT values/proc = 5415 1152
Generated 0 of 6 mixed pair_coeff terms from arithmetic mixing rule
Step        Density          Temp          Press          TotEng
5050000   1.1145284      305.86374     -706.26422     -13868.719
Averages over the last 14 of 27 rows, steps 6300000 to 7550000:
Density Temp Press TotEng
1.11453 294.391 -53.4683 -13931.9
Loop time of 8100.75 on 12 procs for 2500000 steps with 1608 atoms

reset_timestep 0

#################### 2) Production in NVT ensemble #####################
# computing average total energy, pontential energy, temperature, and pressure over time
variable TotEn equal etotal
fix TEAve all ave/time 1 100000 100000 v_TotEn file TotalE.dat

variable PotEn equal pe
fix PEAve all ave/time 1 100000 100000 v_PotEn file PotenE.dat

compute T all temp
fix TempAve all ave/time 1 100000 100000 c_T file temperature.dat

compute P all pressure T
fix PressAve all ave/time 1 100000 100000 c_P file pressure.dat

# computing self-diffusion and Onsager coefficients using the OCTP plugin
compute positions all position
fix f1 all ordern diffusivity 1000 100000 c_positions nb 10 nbe 20

# computing shear and bulk viscosities  using the OCTP plugin
fix f2 all ordern viscosity 5 100000 c_P nb 10 nbe 20

# computing thermal conductivity using the OCTP plugin
compute KE all ke/atom
compute PE all pe/atom
compute ST all stress/atom NULL virial
compute heatflux all heat/flux KE PE ST
fix f3 all ordern thermalconductivity 5 100000 c_heatflux nb 10 nbe 20

# computing the RDF for all group pairs
compute rdfs all rdf/ext Nbin 2000 Nwrite 1000
fix f4 all ave/time 1 1 1000 c_rdfs

dump trjectory all xyz 100000 movie.xyz
dump_modify trjectory element Ow H K Cl

run 250000

CITE-CITE-CITE-CITE-CITE-CITE-CITE-CITE-CITE-CITE-CITE-CITE-CITE

Your simulation uses code contributions which should be cited:

- fix ave/ordern command:

@Article{Jamali2019,
 author = {Jamali, Seyed Hossein and Wolf, Ludger and Becker, Tim M. and de Groen, Maritte and Ramdin, Mahinder and Hartkamp, Remco and Bardow, Andr and Vlugt, Thijs J. H. and Moultos, Othonas A.},
 title = {OCTP: A Tool for On-the-Fly Calculation of Transport Properties of Fluids with the Order-n Algorithm in LAMMPS},
 doi = {10.1021/acs.jcim.8b00939},
 journal = {J. Chem. Inf. Model.},
 year = {2019},
 volume = {59},
 pages = {1290-1294}
 }

CITE-CITE-CITE-CITE-CITE-CITE-CITE-CITE-CITE-CITE-CITE-CITE-CITE

PPPM initialization ...
  extracting TIP4P info from pair style
  G vector (1/distance) = 0.31041691
  grid = 24 24 24
  stencil order = 5
  estimated absolute RMS force accuracy = 0.003755669
  estimated relative force accuracy = 1.1310086e-05
  3d grid and FFT values/proc = 5415 1152
Generated 0 of 6 mixed pair_coeff terms from arithmetic mixing rule
Step        Density          Temp          Press          TotEng
0   1.1145284      309.206       -84.200829     -13931.779
Loop time of 1279.41 on 12 procs for 250000 steps with 1608 atoms

shell bash copy_files.sh dt_1 00.25Mstep

run 250000
PPPM initialization ...
  extracting TIP4P info from pair style
  G vector (1/distance) = 0.31041691
  grid = 24 24 24
  stencil order = 5
  estimated absolute RMS force accuracy = 0.003755669
  estimated relative force accuracy = 1.1310086e-05
  3d grid and FFT values/proc = 5415 1152
Generated 0 of 6 mixed pair_coeff terms from arithmetic mixing rule
Step        Density          Temp          Press          TotEng
250000   1.1145284      294.85482      874.92726     -13910.426
Loop time of 1289.26 on 12 procs for 250000 steps with 1608 atoms

shell bash copy_files.sh dt_1 00.50Mstep

run 250000
PPPM initialization ...
  extracting TIP4P info from pair style
  G vector (1/distance) = 0.31041691
  grid = 24 24 24
  stencil order = 5
  estimated absolute RMS force accuracy = 0.003755669
  estimated relative force accuracy = 1.1310086e-05
  3d grid and FFT values/proc = 5415 1152
Generated 0 of 6 mixed pair_coeff terms from arithmetic mixing rule
Step        Density          Temp          Press          TotEng
500000   1.1145284      293.516        364.78232     -13899.2
Loop time of 1283.62 on 12 procs for 250000 steps with 1608 atoms

shell bash copy_files.sh dt_1 00.75Mstep

run 250000
PPPM initialization ...
  extracting TIP4P info from pair style
  G vector (1/distance) = 0.31041691
  grid = 24 24 24
  stencil order = 5
  estimated absolute RMS force accuracy = 0.003755669
  estimated relative force accuracy = 1.1310086e-05
  3d grid and FFT values/proc = 5415 1152
Generated 0 of 6 mixed pair_coeff terms from arithmetic mixing rule
Step        Density          Temp          Press          TotEng
750000   1.1145284      292.3605       101.00552     -13984.648
Loop time of 1277.77 on 12 procs for 250000 steps with 1608 atoms

shell bash copy_files.sh dt_1 01.00Mstep

run 250000
PPPM initialization ...
  extracting TIP4P info from pair style
  G vector (1/distance) = 0.31041691
  grid = 24 24 24
  stencil order = 5
  estimated absolute RMS force accuracy = 0.003755669
  estimated relative force accuracy = 1.1310086e-05
  3d grid and FFT values/proc = 5415 1152
Generated 0 of 6 mixed pair_coeff terms from arithmetic mixing rule
Step        Density          Temp          Press          TotEng
1000000   1.1145284      303.83858     -322.09231     -13900.056
Loop time of 1284.11 on 12 procs for 250000 steps with 1608 atoms

shell bash copy_files.sh dt_1 01.25Mstep

run 250000
PPPM initialization ...
  extracting TIP4P info from pair style
  G vector (1/distance) = 0.31041691
  grid = 24 24 24
  stencil order = 5
  estimated absolute RMS force accuracy = 0.003755669
  estimated relative force accuracy = 1.1310086e-05
  3d grid and FFT values/proc = 5415 1152
Generated 0 of 6 mixed pair_coeff terms from arithmetic mixing rule
Step        Density          Temp          Press          TotEng
1250000   1.1145284      295.00378     -343.02599     -13969.706
Loop time of 1285.35 on 12 procs for 250000 steps with 1608 atoms

shell bash copy_files.sh dt_1 01.50Mstep

run 250000
PPPM initialization ...
  extracting TIP4P info from pair style
  G vector (1/distance) = 0.31041691
  grid = 24 24 24
  stencil order = 5
  estimated absolute RMS force accuracy = 0.003755669
  estimated relative force accuracy = 1.1310086e-05
  3d grid and FFT values/proc = 5415 1152
Generated 0 of 6 mixed pair_coeff terms from arithmetic mixing rule
Step        Density          Temp          Press          TotEng
1500000   1.1145284      303.18748      497.7196      -13898.668
Loop time of 1278.99 on 12 procs for 250000 steps with 1608 atoms

shell bash copy_files.sh dt_1 01.75Mstep

run 250000
PPPM initialization ...
  extracting TIP4P info from pair style
  G vector (1/distance) = 0.31041691
  grid = 24 24 24
  stencil order = 5
  estimated absolute RMS force accuracy = 0.003755669
  estimated relative force accuracy = 1.1310086e-05
  3d grid and FFT values/proc = 5415 1152
Generated 0 of 6 mixed pair_coeff terms from arithmetic mixing rule
Step        Density          Temp          Press          TotEng
1750000   1.1145284      302.1908       870.11793     -13921.795
Loop time of 1269 on 12 procs for 250000 steps with 1608 atoms

shell bash copy_files.sh dt_1 02.00step

run 1000000
PPPM initialization ...
  extracting TIP4P info from pair style
  G vector (1/distance) = 0.31041691
  grid = 24 24 24
  stencil order = 5
  estimated absolute RMS force accuracy = 0.003755669
  estimated relative force accuracy = 1.1310086e-05
  3d grid and FFT values/proc = 5415 1152
Generated 0 of 6 mixed pair_coeff terms from arithmetic mixing rule
Step        Density          Temp          Press          TotEng
2000000   1.1145284      299.17857      200.40824     -13937.058
Averages over the last 6 of 11 rows, steps 2500000 to 3000000:
Density Temp Press TotEng
1.11453 298.672 -316.03 -13917.2
Loop time of 5148.45 on 12 procs for 1000000 steps with 1608 atoms

shell bash copy_files.sh dt_1 03.00Mstep

run 1000000
PPPM initialization ...
  extracting TIP4P info from pair style
  G vector (1/distance) = 0.31041691
  grid = 24 24 24
  stencil order = 5
  estimated absolute RMS force accuracy = 0.003755669
  estimated relative force accuracy = 1.1310086e-05
  3d grid and FFT values/proc = 5415 1152
Generated 0 of 6 mixed pair_coeff terms from arithmetic mixing rule
Step        Density          Temp          Press          TotEng
3000000   1.1145284      308.47825     -1160.4981     -13879.231
Averages over the last 6 of 11 rows, steps 3500000 to 4000000:
Density Temp Press TotEng
1.11453 294.455 27.0562 -13928.8
Loop time of 5131.8 on 12 procs for 1000000 steps with 1608 atoms

shell bash copy_files.sh dt_1 04.00Mstep

run 1000000
PPPM initialization ...
  extracting TIP4P info from pair style
  G vector (1/distance) = 0.31041691
  grid = 24 24 24
  stencil order = 5
  estimated absolute RMS force accuracy = 0.003755669
  estimated relative force accuracy = 1.1310086e-05
  3d grid and FFT values/proc = 5415 1152
Generated 0 of 6 mixed pair_coeff terms from arithmetic mixing rule
Step        Density          Temp          Press          TotEng
4000000   1.1145284      284.14802      165.19497     -13988.412
Averages over the last 6 of 11 rows, steps 4500000 to 5000000:
Density Temp Press TotEng
1.11453 301.545 135.862 -13917.7
Loop time of 5124.66 on 12 procs for 1000000 steps with 1608 atoms

shell bash copy_files.sh dt_1 05.00Mstep

run 1000000
PPPM initialization ...
  extracting TIP4P info from pair style
  G vector (1/distance) = 0.31041691
  grid = 24 24 24
  stencil order = 5
  estimated absolute RMS force accuracy = 0.003755669
  estimated relative force accuracy = 1.1310086e-05
  3d grid and FFT values/proc = 5415 1152
Generated 0 of 6 mixed pair_coeff terms from arithmetic mixing rule
Step        Density          Temp          Press          TotEng
5000000   1.1145284      307.61363     -119.89505     -13855.05
Averages over the last 6 of 11 rows, steps 5500000 to 6000000:
Density Temp Press TotEng
1.11453 297.486 150.319 -13907.2
Loop time of 5125.31 on 12 procs for 1000000 steps with 1608 atoms

shell bash copy_files.sh dt_1 06.00Mstep

run 1000000
PPPM initialization ...
  extracting TIP4P info from pair style
  G vector (1/distance) = 0.31041691
  grid = 24 24 24
  stencil order = 5
  estimated absolute RMS force accuracy = 0.003755669
  estimated relative force accuracy = 1.1310086e-05
  3d grid and FFT values/proc = 5415 1152
Generated 0 of 6 mixed pair_coeff terms from arithmetic mixing rule
Step        Density          Temp          Press          TotEng
6000000   1.1145284      299.86127      894.75485     -13908.111
Averages over the last 6 of 11 rows, steps 6500000 to 7000000:
Density Temp Press TotEng
1.11453 294.249 70.4702 -13921.7
Loop time of 5150.32 on 12 procs for 1000000 steps with 1608 atoms

shell bash copy_files.sh dt_1 07.00Mstep

run 1000000
PPPM initialization ...
  extracting TIP4P info from pair style
  G vector (1/distance) = 0.31041691
  grid = 24 24 24
  stencil order = 5
  estimated absolute RMS force accuracy = 0.003755669
  estimated relative force accuracy = 1.1310086e-05
  3d grid and FFT values/proc = 5415 1152
Generated 0 of 6 mixed pair_coeff terms from arithmetic mixing rule
Step        Density          Temp          Press          TotEng
7000000   1.1145284      301.96092     -96.393008     -13941.602
Averages over the last 6 of 11 rows, steps 7500000 to 8000000:
Density Temp Press TotEng
1.11453 300.013 422.946 -13914.2
Loop time of 5130.24 on 12 procs for 1000000 steps with 1608 atoms

shell bash copy_files.sh dt_1 08.00Mstep

run 1000000
PPPM initialization ...
  extracting TIP4P info from pair style
  G vector (1/distance) = 0.31041691
  grid = 24 24 24
  stencil order = 5
  estimated absolute RMS force accuracy = 0.003755669
  estimated relative force accuracy = 1.1310086e-05
  3d grid and FFT values/proc = 5415 1152
Generated 0 of 6 mixed pair_coeff terms from arithmetic mixing rule
Step        Density          Temp          Press          TotEng
8000000   1.1145284      298.06678      574.16158     -13897.996
Averages over the last 6 of 11 rows, steps 8500000 to 9000000:
Density Temp Press TotEng
1.11453 303.409 182.536 -13881.3
Loop time of 5137.21 on 12 procs for 1000000 steps with 1608 atoms

shell bash copy_files.sh dt_1 09.00Mstep

run 1000000
PPPM initialization ...
  extracting TIP4P info from pair style
  G vector (1/distance) = 0.31041691
  grid = 24 24 24
  stencil order = 5
  estimated absolute RMS force accuracy = 0.003755669
  estimated relative force accuracy = 1.1310086e-05
  3d grid and FFT values/proc = 5415 1152
Generated 0 of 6 mixed pair_coeff terms from arithmetic mixing rule
Step        Density          Temp          Press          TotEng
9000000   1.1145284      305.51045      250.4095      -13861.321
Averages over the last 6 of 11 rows, steps 9500000 to 10000000:
Density Temp Press TotEng
1.11453 301.636 -316.54 -13910.7
Loop time of 5147.18 on 12 procs for 1000000 steps with 1608 atoms

shell bash copy_files.sh dt_1 10.00Mstep

run 2500000
PPPM initialization ...
  extracting TIP4P info from pair style
  G vector (1/distance) = 0.31041691
  grid = 24 24 24
  stencil order = 5
  estimated absolute RMS force accuracy = 0.003755669
  estimated relative force accuracy = 1.1310086e-05
  3d grid and FFT values/proc = 5415 1152
Generated 0 of 6 mixed pair_coeff terms from arithmetic mixing rule
Step        Density          Temp          Press          TotEng
10000000   1.1145284      306.64216     -204.73787     -13888.113
Averages over the last 13 of 26 rows, steps 11300000 to 12500000:
Density Temp Press TotEng
1.11453 297.868 -228.798 -13924
Loop time of 12838.8 on 12 procs for 2500000 steps with 1608 atoms

shell bash copy_files.sh dt_1 12.50Mstep

run 2500000
PPPM initialization ...
  extracting TIP4P info from pair style
  G vector (1/distance) = 0.31041691
  grid = 24 24 24
  stencil order = 5
  estimated absolute RMS force accuracy = 0.003755669
  estimated relative force accuracy = 1.1310086e-05
  3d grid and FFT values/proc = 5415 1152
Generated 0 of 6 mixed pair_coeff terms from arithmetic mixing rule
Step        Density          Temp          Press          TotEng
12500000   1.1145284      290.67478     -326.81687     -13983.447
Averages over the last 13 of 26 rows, steps 13800000 to 15000000:
Density Temp Press TotEng
1.11453 298.014 346.046 -13923.2
Loop time of 12844.8 on 12 procs for 2500000 steps with 1608 atoms

shell bash copy_files.sh dt_1 15.00Mstep

run 2500000
PPPM initialization ...
  extracting TIP4P info from pair style
  G vector (1/distance) = 0.31041691
  grid = 24 24 24
  stencil order = 5
  estimated absolute RMS force accuracy = 0.003755669
  estimated relative force accuracy = 1.1310086e-05
  3d grid and FFT values/proc = 5415 1152
Generated 0 of 6 mixed pair_coeff terms from arithmetic mixing rule
Step        Density          Temp          Press          TotEng
15000000   1.1145284      300.40734     -158.79493     -13897.31
Averages over the last 13 of 26 rows, steps 16300000 to 17500000:
Density Temp Press TotEng
1.11453 298.096 -75.9935 -13935.6
Loop time of 12859.6 on 12 procs for 2500000 steps with 1608 atoms

shell bash copy_files.sh dt_1 17.50Mstep

run 2500000
PPPM initialization ...
  extracting TIP4P info from pair style
  G vector (1/distance) = 0.31041691
  grid = 24 24 24
  stencil order = 5
  estimated absolute RMS force accuracy = 0.003755669
  estimated relative force accuracy = 1.1310086e-05
  3d grid and FFT values/proc = 5415 1152
Generated 0 of 6 mixed pair_coeff terms from arithmetic mixing rule
Step        Density          Temp          Press          TotEng
17500000   1.1145284      299.92601      147.49622     -13915.99
Averages over the last 13 of 26 rows, steps 18800000 to 20000000:
Density Temp Press TotEng
1.11453 296.714 268.39 -13928.4
Loop time of 12841.1 on 12 procs for 2500000 steps with 1608 atoms

shell bash copy_files.sh dt_1 20.00Mstep

run 5000000
PPPM initialization ...
  extracting TIP4P info from pair style
  G vector (1/distance) = 0.31041691
  grid = 24 24 24
  stencil order = 5
  estimated absolute RMS force accuracy = 0.003755669
  estimated relative force accuracy = 1.1310086e-05
  3d grid and FFT values/proc = 5415 1152
Generated 0 of 6 mixed pair_coeff terms from arithmetic mixing rule
Step        Density          Temp          Press          TotEng
20000000   1.1145284      310.62407      98.704804     -13903.661
Averages over the last 26 of 51 rows, steps 22500000 to 25000000:
Density Temp Press TotEng
1.11453 298.024 32.6899 -13917.9
Loop time of 25638.9 on 12 procs for 5000000 steps with 1608 atoms

shell bash copy_files.sh dt_1 25.00Mstep

run 5000000
PPPM initialization ...
  extracting TIP4P info from pair style
  G vector (1/distance) = 0.31041691
  grid = 24 24 24
  stencil order = 5
  estimated absolute RMS force accuracy = 0.003755669
  estimated relative force accuracy = 1.1310086e-05
  3d grid and FFT values/proc = 5415 1152
Generated 0 of 6 mixed pair_coeff terms from arithmetic mixing rule
Step        Density          Temp          Press          TotEng
25000000   1.1145284      290.88526     -392.95764     -13868.526
Averages over the last 26 of 51 rows, steps 27500000 to 30000000:
Density Temp Press TotEng
1.11453 299.024 110.19 -13929
Loop time of 25555.7 on 12 procs for 5000000 steps with 1608 atoms

shell bash copy_files.sh dt_1 30.00Mstep

run 5000000
PPPM initialization ...
  extracting TIP4P info from pair style
  G vector (1/distance) = 0.31041691
  grid = 24 24 24
  stencil order = 5
  estimated absolute RMS force accuracy = 0.003755669
  estimated relative force accuracy = 1.1310086e-05
  3d grid and FFT values/proc = 5415 1152
Generated 0 of 6 mixed pair_coeff terms from arithmetic mixing rule
Step        Density          Temp          Press          TotEng
30000000   1.1145284      289.13049     -958.29219     -13896.955
Averages over the last 15 of 29 rows, steps 31400000 to 32800000:
Density Temp Press TotEng
1.11453 296.744 9.82855 -13933.1
