LAMMPS (23 Jun 2022 - Update 2)
####################################################
# Preprocessing Li2SO4 in water
#################### SETTING UP ####################
units real
dimension 3
newton on
boundary p p p
atom_style full

#################### VARIABLES ####################
variable Temp equal 298.15    # Temperature in K
variable Pres equal 1    # Pressure in atm.

variable RandomSeed equal 85 # The random seed for velocity
variable tstep equal 2 # timestep in fs

#################### NPT ####################
variable Ninptpre equal 10000 # Pre-initialize the NPT ensemble (very small timesteps)
variable Ninpt equal 5000000  # Initialize the NPT ensemble
variable Npnpt equal 5000000  # Production in the NPT ensemble (volume)

#################### NVT ####################
variable Ninvtpre equal 10000  # Pre-initialize the NVT ensemble (very small timesteps)
variable Ninvt equal 2500000   # Initialize the NVT ensemble 2.5Mstep
variable Nrun1 equal 250000  # production in the NVT ensemble (Transport properties)
variable Nrun2 equal 1000000  # production in the NVT ensemble (Transport properties)
variable Nrun3 equal 2500000  # production in the NVT ensemble (Transport properties)
variable Nrun4 equal 5000000  # production in the NVT ensemble (Transport properties)

variable Nf equal 100000      # Nfreq (fix ave/time and thermo)
variable Ne equal  1          # Nevery (fix ave/time)
variable Nr equal 100000/1
variable Nd equal 100000
variable NBR equal 5000000/100

variable nb equal 10          # Number of blocks (fix ordern)
variable nbe equal 20         # Number of block elements (fix ordern)
variable Nvisc equal 5        # Nevery for viscosity (fix ordern: sample data at (Nvisc*2))
variable Ncond equal 5        # Nevery for Tconductivity (fix ordern: sample data at (Ncond*2))
variable Ndiff equal 1000     # Nevery for diffusivity (fix ordern: sample data at (Ndiff))
variable Nwrit equal 100000   # Nwrite for transport properties (fix ordern: write every (Nwrit))

variable Nrdfe equal 1000     # Nevery for RDF (fix ave/time)
variable Nrdfw equal 1000     # Nwrite for RDF (compute rdf/ext: write every (Nrdfw*Nrdfe))
variable binnum equal 2000    # Number of bins for RDF

#################### ATOM DEFINITION and FORCEFIELD ####################
read_data ./data.lmp                     # read the positions
Reading data file ...
  orthogonal box = (0 0 0) to (26.379509 26.379509 26.379509)
  reading atoms ...
  1608 atoms
  scanning bonds ...
  scanning angles ...
  reading bonds ...
  1000 bonds
  reading angles ...
  500 angles
Finding 1-2 1-3 1-4 neighbors ...
     2 = max # of 1-2 neighbors
     1 = max # of 1-3 neighbors
     1 = max # of 1-4 neighbors
     2 = max # of special neighbors
include ./forcefield.data                # read the force field
#--------INTERMOLECULAR POTENTIAL -------------------#
# --------Developed for MadridT KCl + TIP4P/2005-----#

mass 1 15.9994	# Ow
mass 2 1.008	# Hw
mass 3 6.941	# Li
mass 4 35.453	# Cl

pair_style lj/cut/tip4p/long 1 2 1 1 0.1546 10.0
kspace_style pppm/tip4p 1.0e-5
pair_modify mix arithmetic tail yes # ATC and Lorentz-Berthelot combining rules

#-----------------Combinations----------------------------
# atomtype atomtype epsilon sigma

pair_coeff 1 1 0.185200 3.15890    # Ow-Ow
pair_coeff 1 2 0.000000 0.00000    # Ow-Hw
pair_coeff 1 3 0.167459 2.12000    # Ow-Li
pair_coeff 1 4 0.014814 4.23867    # Ow-Cl

pair_coeff 2 2 0.000000 0.00000    # Hw-Hw
pair_coeff 2 3 0.000000 0.00000    # Hw-K
pair_coeff 2 4 0.000000 0.00000    # Hw-Cl

pair_coeff 3 3 0.103989 1.43970    # Li-Li
pair_coeff 3 4 0.306631 2.70000    # Li-Cl

pair_coeff 4 4 0.018385 4.69906    # Cl-Cl

bond_style  harmonic
bond_coeff 1 2000 0.9572           # Ow-Hw

angle_style harmonic
angle_coeff 1 200 104.52           # H-Ow-H

#dihedral_style none
#improper_style none

set type 1 charge -1.1128          # O
Setting atom values ...
  500 settings made for charge
set type 2 charge +0.5564          # OH
Setting atom values ...
  1000 settings made for charge
set type 3 charge +0.8500          # Li
Setting atom values ...
  54 settings made for charge
set type 4 charge -0.8500          # Cl
Setting atom values ...
  54 settings made for charge

#################### INITIALIZATION ####################
group wat type 1		# O water
500 atoms in group wat
group Li type 3			# Potasium ion
54 atoms in group Li
group Cl type 4			# Chlorine ion
54 atoms in group Cl

# neigbor lists
neighbor 2.0 bin
neigh_modify every 1 delay 0 check yes

# velocity-Verlet integrator
run_style verlet

# minimizing the system using the conjugate gradient method
min_style cg
min_modify dmax 0.05
minimize 1.0e-6 1.0e-6 1000 10000
PPPM initialization ...
  extracting TIP4P info from pair style
  G vector (1/distance) = 0.31127036
  grid = 25 25 25
  stencil order = 5
  estimated absolute RMS force accuracy = 0.0034097995
  estimated relative force accuracy = 1.026851e-05
  3d grid and FFT values/proc = 6400 1875
Generated 0 of 6 mixed pair_coeff terms from arithmetic mixing rule
  update every 1 steps, delay 0 steps, check yes
Step          Temp          E_pair         E_mol          TotEng         Press
0   0              641.68376      3.1566538e-05  641.68379      52703.279
Loop time of 6.0022 on 12 procs for 1000 steps with 1608 atoms

Minimization stats:
  Stopping criterion = max iterations
  Energy initial, next-to-last, final =
  Force two-norm initial, final = 2112.4623 42.476166
  Force max component initial, final = 608.22136 9.3161348
  Final line search alpha, max atom move = 0.0026960674 0.025116928
  Iterations, force evaluations = 1000 1842

reset_timestep 0

# initializing velocities
velocity all create 298.15 85

# rate of writing thermal properties to the log file
thermo_style custom step density temp press etotal
thermo_modify flush yes
thermo 100000

#################### 2) Initialize the NPT ensemble ####################
######### Go to the correct temperature now ant initiate that ##########
fix constrain all shake 1.0e-6 1000 0 b 1 a 1
       0 = # of size 2 clusters
       0 = # of size 3 clusters
       0 = # of size 4 clusters
     500 = # of frozen angles
  find clusters CPU = 0.001 seconds
fix integrate all npt temp 298.15 298.15 10.0 iso 1 1 100.0

# Initializing the whole system with very small timesteps in the NPT ensemble
timestep 0.001
run 10000
PPPM initialization ...
  extracting TIP4P info from pair style
  G vector (1/distance) = 0.31127036
  grid = 25 25 25
  stencil order = 5
  estimated absolute RMS force accuracy = 0.0034097995
  estimated relative force accuracy = 1.026851e-05
  3d grid and FFT values/proc = 6400 1875
Generated 0 of 6 mixed pair_coeff terms from arithmetic mixing rule
Step        Density          Temp          Press          TotEng
0   1.0219065      432.81576     -884877.96     -14267.536
Loop time of 42.5436 on 12 procs for 10000 steps with 1608 atoms

timestep 0.01
run 10000
PPPM initialization ...
  extracting TIP4P info from pair style
  G vector (1/distance) = 0.31147989
  grid = 25 25 25
  stencil order = 5
  estimated absolute RMS force accuracy = 0.0033802926
  estimated relative force accuracy = 1.0179651e-05
  3d grid and FFT values/proc = 6400 1875
Generated 0 of 6 mixed pair_coeff terms from arithmetic mixing rule
Step        Density          Temp          Press          TotEng
10000   1.0309039      170.6393      -186112.15     -14481.864
Loop time of 42.5015 on 12 procs for 10000 steps with 1608 atoms

timestep 0.1
run 10000
PPPM initialization ...
  extracting TIP4P info from pair style
  G vector (1/distance) = 0.31167608
  grid = 25 25 25
  stencil order = 5
  estimated absolute RMS force accuracy = 0.0033528767
  estimated relative force accuracy = 1.0097088e-05
  3d grid and FFT values/proc = 6400 1875
Generated 0 of 6 mixed pair_coeff terms from arithmetic mixing rule
Step        Density          Temp          Press          TotEng
20000   1.0394088      302.67997     -14907.968     -13458.414
Loop time of 45.0124 on 12 procs for 10000 steps with 1608 atoms

timestep 0.2
run 10000
PPPM initialization ...
  extracting TIP4P info from pair style
  G vector (1/distance) = 0.30980133
  grid = 24 24 24
  stencil order = 5
  estimated absolute RMS force accuracy = 0.0038523239
  estimated relative force accuracy = 1.1601159e-05
  3d grid and FFT values/proc = 5415 1152
Generated 0 of 6 mixed pair_coeff terms from arithmetic mixing rule
Step        Density          Temp          Press          TotEng
30000   1.0863855      307.92003     -257.03724     -13556.427
Loop time of 43.7912 on 12 procs for 10000 steps with 1608 atoms

timestep 0.5
run 10000
PPPM initialization ...
  extracting TIP4P info from pair style
  G vector (1/distance) = 0.31028808
  grid = 24 24 24
  stencil order = 5
  estimated absolute RMS force accuracy = 0.0037757108
  estimated relative force accuracy = 1.1370441e-05
  3d grid and FFT values/proc = 5415 1152
Generated 0 of 6 mixed pair_coeff terms from arithmetic mixing rule
Step        Density          Temp          Press          TotEng
40000   1.1085726      300.767       -1420.7991     -13726.457
Loop time of 43.7377 on 12 procs for 10000 steps with 1608 atoms

reset_timestep 0

# continuing the initialization with the final value of timestep
unfix integrate
fix integrate all npt temp 298.15 298.15 100.0 iso 1 1 1000.0

timestep 2

run 5000000
PPPM initialization ...
  extracting TIP4P info from pair style
  G vector (1/distance) = 0.31067731
  grid = 24 24 24
  stencil order = 5
  estimated absolute RMS force accuracy = 0.0037154597
  estimated relative force accuracy = 1.1188997e-05
  3d grid and FFT values/proc = 5415 1152
Generated 0 of 6 mixed pair_coeff terms from arithmetic mixing rule
Step        Density          Temp          Press          TotEng
0   1.1266742      288.81997      444.2822      -13868.169
Averages over the last 26 of 51 rows, steps 2500000 to 5000000:
Density Temp Press TotEng
1.11486 300.619 -324.886 -13915.4
Loop time of 23299.3 on 12 procs for 5000000 steps with 1608 atoms

reset_timestep 0

#################### 3) Obtaining average volume in NPT ######################
# Creating restart files
restart 100000 1.restart 2.restart

# Getting the average volume of the system
variable Volume equal vol
fix VoluAve all ave/time 1 5000000 5000000 v_Volume file volume.dat

variable Dens equal density
fix DensAve all ave/time 1 50000 50000 v_Dens file density.dat

compute T1 all temp
fix TempAve1 all ave/time 1 50000 50000 c_T1 file temperatureNPT.dat

compute P1 all pressure T1
fix PressAve1 all ave/time 1 50000 50000 c_P1 file pressureNPT.dat

run 5000000
PPPM initialization ...
  extracting TIP4P info from pair style
  G vector (1/distance) = 0.31056039
  grid = 24 24 24
  stencil order = 5
  estimated absolute RMS force accuracy = 0.0037334648
  estimated relative force accuracy = 1.1243218e-05
  3d grid and FFT values/proc = 5415 1152
Generated 0 of 6 mixed pair_coeff terms from arithmetic mixing rule
Step        Density          Temp          Press          TotEng
0   1.1212026      286.39895     -130.30866     -13941.634
Averages over the last 26 of 51 rows, steps 2500000 to 5000000:
Density Temp Press TotEng
1.11328 300.012 -330.017 -13904.7
Loop time of 23598.8 on 12 procs for 5000000 steps with 1608 atoms

#################### 4) Initializing the NVT ensemble ####################
# scaling the size of the system to the average volume
variable sidesize equal (f_VoluAve^(1.0/3.0))    # get the volume
variable xlow equal xlo
variable ylow equal ylo
variable zlow equal zlo
variable xhig equal (xlo+25.6292069140999)
variable yhig equal (ylo+25.6292069140999)
variable zhig equal (zlo+25.6292069140999)
change_box all x final 0.404536707284663 26.0337436213846 y final 0.404536707284663 26.0337436213846 z final 0.404536707284663 26.0337436213846
Changing box ...
  orthogonal box = (0.40453671 0.40453671 0.40453671) to (26.033744 25.974972 25.974972)
  orthogonal box = (0.40453671 0.40453671 0.40453671) to (26.033744 26.033744 25.974972)
  orthogonal box = (0.40453671 0.40453671 0.40453671) to (26.033744 26.033744 26.033744)
unfix DensAve
unfix VoluAve
unfix TempAve1
unfix PressAve1

# changing the ensemble to NVT
unfix integrate
fix integrate all nvt temp 298.15 298.15 10.0

timestep 0.001
run 10000
PPPM initialization ...
  extracting TIP4P info from pair style
  G vector (1/distance) = 0.31041219
  grid = 24 24 24
  stencil order = 5
  estimated absolute RMS force accuracy = 0.0037564024
  estimated relative force accuracy = 1.1312294e-05
  3d grid and FFT values/proc = 5415 1152
Generated 0 of 6 mixed pair_coeff terms from arithmetic mixing rule
Step        Density          Temp          Press          TotEng
5000000   1.1143093      293.64636     -64062.501     -13951.106
Loop time of 30.0133 on 12 procs for 10000 steps with 1608 atoms

timestep 0.01
run 10000
PPPM initialization ...
  extracting TIP4P info from pair style
  G vector (1/distance) = 0.31041219
  grid = 24 24 24
  stencil order = 5
  estimated absolute RMS force accuracy = 0.0037564024
  estimated relative force accuracy = 1.1312294e-05
  3d grid and FFT values/proc = 5415 1152
Generated 0 of 6 mixed pair_coeff terms from arithmetic mixing rule
Step        Density          Temp          Press          TotEng
5010000   1.1143093      299.43613     -492.75711     -13889.204
Loop time of 29.7428 on 12 procs for 10000 steps with 1608 atoms

timestep 0.1
run 10000
PPPM initialization ...
  extracting TIP4P info from pair style
  G vector (1/distance) = 0.31041219
  grid = 24 24 24
  stencil order = 5
  estimated absolute RMS force accuracy = 0.0037564024
  estimated relative force accuracy = 1.1312294e-05
  3d grid and FFT values/proc = 5415 1152
Generated 0 of 6 mixed pair_coeff terms from arithmetic mixing rule
Step        Density          Temp          Press          TotEng
5020000   1.1143093      306.30175     -151.73013     -13822.369
Loop time of 30.8353 on 12 procs for 10000 steps with 1608 atoms

timestep 0.2
run 10000
PPPM initialization ...
  extracting TIP4P info from pair style
  G vector (1/distance) = 0.31041219
  grid = 24 24 24
  stencil order = 5
  estimated absolute RMS force accuracy = 0.0037564024
  estimated relative force accuracy = 1.1312294e-05
  3d grid and FFT values/proc = 5415 1152
Generated 0 of 6 mixed pair_coeff terms from arithmetic mixing rule
Step        Density          Temp          Press          TotEng
5030000   1.1143093      299.66606     -455.17392     -13899.865
Loop time of 31.2341 on 12 procs for 10000 steps with 1608 atoms

timestep 0.5
run 10000
PPPM initialization ...
  extracting TIP4P info from pair style
  G vector (1/distance) = 0.31041219
  grid = 24 24 24
  stencil order = 5
  estimated absolute RMS force accuracy = 0.0037564024
  estimated relative force accuracy = 1.1312294e-05
  3d grid and FFT values/proc = 5415 1152
Generated 0 of 6 mixed pair_coeff terms from arithmetic mixing rule
Step        Density          Temp          Press          TotEng
5040000   1.1143093      296.211        615.91364     -13898.586
Loop time of 31.139 on 12 procs for 10000 steps with 1608 atoms

unfix integrate
fix integrate all nvt temp 298.15 298.15 100.0
# continuing the initialization with the final value of timestep
timestep 2

run 2500000
PPPM initialization ...
  extracting TIP4P info from pair style
  G vector (1/distance) = 0.31041219
  grid = 24 24 24
  stencil order = 5
  estimated absolute RMS force accuracy = 0.0037564024
  estimated relative force accuracy = 1.1312294e-05
  3d grid and FFT values/proc = 5415 1152
Generated 0 of 6 mixed pair_coeff terms from arithmetic mixing rule
Step        Density          Temp          Press          TotEng
5050000   1.1143093      302.33012      349.53189     -13906.262
Averages over the last 14 of 27 rows, steps 6300000 to 7550000:
Density Temp Press TotEng
1.11431 296.57 93.9658 -13944.6
Loop time of 8299.02 on 12 procs for 2500000 steps with 1608 atoms

reset_timestep 0

#################### 2) Production in NVT ensemble #####################
# computing average total energy, pontential energy, temperature, and pressure over time
variable TotEn equal etotal
fix TEAve all ave/time 1 100000 100000 v_TotEn file TotalE.dat

variable PotEn equal pe
fix PEAve all ave/time 1 100000 100000 v_PotEn file PotenE.dat

compute T all temp
fix TempAve all ave/time 1 100000 100000 c_T file temperature.dat

compute P all pressure T
fix PressAve all ave/time 1 100000 100000 c_P file pressure.dat

# computing self-diffusion and Onsager coefficients using the OCTP plugin
compute positions all position
fix f1 all ordern diffusivity 1000 100000 c_positions nb 10 nbe 20

# computing shear and bulk viscosities  using the OCTP plugin
fix f2 all ordern viscosity 5 100000 c_P nb 10 nbe 20

# computing thermal conductivity using the OCTP plugin
compute KE all ke/atom
compute PE all pe/atom
compute ST all stress/atom NULL virial
compute heatflux all heat/flux KE PE ST
fix f3 all ordern thermalconductivity 5 100000 c_heatflux nb 10 nbe 20

# computing the RDF for all group pairs
compute rdfs all rdf/ext Nbin 2000 Nwrite 1000
fix f4 all ave/time 1 1 1000 c_rdfs

dump trjectory all xyz 100000 movie.xyz
dump_modify trjectory element Ow H K Cl

run 250000

CITE-CITE-CITE-CITE-CITE-CITE-CITE-CITE-CITE-CITE-CITE-CITE-CITE

Your simulation uses code contributions which should be cited:

- fix ave/ordern command:

@Article{Jamali2019,
 author = {Jamali, Seyed Hossein and Wolf, Ludger and Becker, Tim M. and de Groen, Maritte and Ramdin, Mahinder and Hartkamp, Remco and Bardow, Andr and Vlugt, Thijs J. H. and Moultos, Othonas A.},
 title = {OCTP: A Tool for On-the-Fly Calculation of Transport Properties of Fluids with the Order-n Algorithm in LAMMPS},
 doi = {10.1021/acs.jcim.8b00939},
 journal = {J. Chem. Inf. Model.},
 year = {2019},
 volume = {59},
 pages = {1290-1294}
 }

CITE-CITE-CITE-CITE-CITE-CITE-CITE-CITE-CITE-CITE-CITE-CITE-CITE

PPPM initialization ...
  extracting TIP4P info from pair style
  G vector (1/distance) = 0.31041219
  grid = 24 24 24
  stencil order = 5
  estimated absolute RMS force accuracy = 0.0037564024
  estimated relative force accuracy = 1.1312294e-05
  3d grid and FFT values/proc = 5415 1152
Generated 0 of 6 mixed pair_coeff terms from arithmetic mixing rule
Step        Density          Temp          Press          TotEng
0   1.1143093      292.24731     -693.88583     -14012.629
Loop time of 1313.83 on 12 procs for 250000 steps with 1608 atoms

shell bash copy_files.sh dt_2 00.25Mstep

run 250000
PPPM initialization ...
  extracting TIP4P info from pair style
  G vector (1/distance) = 0.31041219
  grid = 24 24 24
  stencil order = 5
  estimated absolute RMS force accuracy = 0.0037564024
  estimated relative force accuracy = 1.1312294e-05
  3d grid and FFT values/proc = 5415 1152
Generated 0 of 6 mixed pair_coeff terms from arithmetic mixing rule
Step        Density          Temp          Press          TotEng
250000   1.1143093      300.67893      493.70351     -13891.485
Loop time of 1307.56 on 12 procs for 250000 steps with 1608 atoms

shell bash copy_files.sh dt_2 00.50Mstep

run 250000
PPPM initialization ...
  extracting TIP4P info from pair style
  G vector (1/distance) = 0.31041219
  grid = 24 24 24
  stencil order = 5
  estimated absolute RMS force accuracy = 0.0037564024
  estimated relative force accuracy = 1.1312294e-05
  3d grid and FFT values/proc = 5415 1152
Generated 0 of 6 mixed pair_coeff terms from arithmetic mixing rule
Step        Density          Temp          Press          TotEng
500000   1.1143093      292.24609     -587.00323     -13901.449
Loop time of 1316.58 on 12 procs for 250000 steps with 1608 atoms

shell bash copy_files.sh dt_2 00.75Mstep

run 250000
PPPM initialization ...
  extracting TIP4P info from pair style
  G vector (1/distance) = 0.31041219
  grid = 24 24 24
  stencil order = 5
  estimated absolute RMS force accuracy = 0.0037564024
  estimated relative force accuracy = 1.1312294e-05
  3d grid and FFT values/proc = 5415 1152
Generated 0 of 6 mixed pair_coeff terms from arithmetic mixing rule
Step        Density          Temp          Press          TotEng
750000   1.1143093      291.93708     -30.876637     -13979.142
Loop time of 1304.01 on 12 procs for 250000 steps with 1608 atoms

shell bash copy_files.sh dt_2 01.00Mstep

run 250000
PPPM initialization ...
  extracting TIP4P info from pair style
  G vector (1/distance) = 0.31041219
  grid = 24 24 24
  stencil order = 5
  estimated absolute RMS force accuracy = 0.0037564024
  estimated relative force accuracy = 1.1312294e-05
  3d grid and FFT values/proc = 5415 1152
Generated 0 of 6 mixed pair_coeff terms from arithmetic mixing rule
Step        Density          Temp          Press          TotEng
1000000   1.1143093      298.87187      976.26438     -13884.526
Loop time of 1299.24 on 12 procs for 250000 steps with 1608 atoms

shell bash copy_files.sh dt_2 01.25Mstep

run 250000
PPPM initialization ...
  extracting TIP4P info from pair style
  G vector (1/distance) = 0.31041219
  grid = 24 24 24
  stencil order = 5
  estimated absolute RMS force accuracy = 0.0037564024
  estimated relative force accuracy = 1.1312294e-05
  3d grid and FFT values/proc = 5415 1152
Generated 0 of 6 mixed pair_coeff terms from arithmetic mixing rule
Step        Density          Temp          Press          TotEng
1250000   1.1143093      297.33123      953.98495     -13870.154
Loop time of 1307.99 on 12 procs for 250000 steps with 1608 atoms

shell bash copy_files.sh dt_2 01.50Mstep

run 250000
PPPM initialization ...
  extracting TIP4P info from pair style
  G vector (1/distance) = 0.31041219
  grid = 24 24 24
  stencil order = 5
  estimated absolute RMS force accuracy = 0.0037564024
  estimated relative force accuracy = 1.1312294e-05
  3d grid and FFT values/proc = 5415 1152
Generated 0 of 6 mixed pair_coeff terms from arithmetic mixing rule
Step        Density          Temp          Press          TotEng
1500000   1.1143093      306.95659     -667.51988     -13930.21
Loop time of 1295.77 on 12 procs for 250000 steps with 1608 atoms

shell bash copy_files.sh dt_2 01.75Mstep

run 250000
PPPM initialization ...
  extracting TIP4P info from pair style
  G vector (1/distance) = 0.31041219
  grid = 24 24 24
  stencil order = 5
  estimated absolute RMS force accuracy = 0.0037564024
  estimated relative force accuracy = 1.1312294e-05
  3d grid and FFT values/proc = 5415 1152
Generated 0 of 6 mixed pair_coeff terms from arithmetic mixing rule
Step        Density          Temp          Press          TotEng
1750000   1.1143093      286.2625      -429.46593     -13970.012
Loop time of 1305.8 on 12 procs for 250000 steps with 1608 atoms

shell bash copy_files.sh dt_2 02.00step

run 1000000
PPPM initialization ...
  extracting TIP4P info from pair style
  G vector (1/distance) = 0.31041219
  grid = 24 24 24
  stencil order = 5
  estimated absolute RMS force accuracy = 0.0037564024
  estimated relative force accuracy = 1.1312294e-05
  3d grid and FFT values/proc = 5415 1152
Generated 0 of 6 mixed pair_coeff terms from arithmetic mixing rule
Step        Density          Temp          Press          TotEng
2000000   1.1143093      297.37336     -125.87824     -13898.328
Averages over the last 6 of 11 rows, steps 2500000 to 3000000:
Density Temp Press TotEng
1.11431 296.606 87.4621 -13933.8
Loop time of 5216.72 on 12 procs for 1000000 steps with 1608 atoms

shell bash copy_files.sh dt_2 03.00Mstep

run 1000000
PPPM initialization ...
  extracting TIP4P info from pair style
  G vector (1/distance) = 0.31041219
  grid = 24 24 24
  stencil order = 5
  estimated absolute RMS force accuracy = 0.0037564024
  estimated relative force accuracy = 1.1312294e-05
  3d grid and FFT values/proc = 5415 1152
Generated 0 of 6 mixed pair_coeff terms from arithmetic mixing rule
Step        Density          Temp          Press          TotEng
3000000   1.1143093      299.65714      581.95928     -13923.966
Averages over the last 6 of 11 rows, steps 3500000 to 4000000:
Density Temp Press TotEng
1.11431 301.179 449.515 -13893.8
Loop time of 5216.37 on 12 procs for 1000000 steps with 1608 atoms

shell bash copy_files.sh dt_2 04.00Mstep

run 1000000
PPPM initialization ...
  extracting TIP4P info from pair style
  G vector (1/distance) = 0.31041219
  grid = 24 24 24
  stencil order = 5
  estimated absolute RMS force accuracy = 0.0037564024
  estimated relative force accuracy = 1.1312294e-05
  3d grid and FFT values/proc = 5415 1152
Generated 0 of 6 mixed pair_coeff terms from arithmetic mixing rule
Step        Density          Temp          Press          TotEng
4000000   1.1143093      308.20722      417.49699     -13874.269
Averages over the last 6 of 11 rows, steps 4500000 to 5000000:
Density Temp Press TotEng
1.11431 294.781 2.12349 -13935.9
Loop time of 5216.46 on 12 procs for 1000000 steps with 1608 atoms
