LAMMPS (23 Jun 2022 - Update 2)
####################################################
# Preprocessing Li2SO4 in water
#################### SETTING UP ####################
units real
dimension 3
newton on
boundary p p p
atom_style full

#################### VARIABLES ####################
variable Temp equal 298.15    # Temperature in K
variable Pres equal 1    # Pressure in atm.

variable RandomSeed equal 87 # The random seed for velocity
variable tstep equal 1 # timestep in fs

#################### NPT ####################
variable Ninptpre equal 10000 # Pre-initialize the NPT ensemble (very small timesteps)
variable Ninpt equal 5000000  # Initialize the NPT ensemble
variable Npnpt equal 5000000  # Production in the NPT ensemble (volume)

#################### NVT ####################
variable Ninvtpre equal 10000  # Pre-initialize the NVT ensemble (very small timesteps)
variable Ninvt equal 2500000   # Initialize the NVT ensemble 2.5Mstep
variable Nrun1 equal 250000  # production in the NVT ensemble (Transport properties)
variable Nrun2 equal 1000000  # production in the NVT ensemble (Transport properties)
variable Nrun3 equal 2500000  # production in the NVT ensemble (Transport properties)
variable Nrun4 equal 5000000  # production in the NVT ensemble (Transport properties)

variable Nf equal 100000      # Nfreq (fix ave/time and thermo)
variable Ne equal  1          # Nevery (fix ave/time)
variable Nr equal 100000/1
variable Nd equal 100000
variable NBR equal 5000000/100

variable nb equal 10          # Number of blocks (fix ordern)
variable nbe equal 20         # Number of block elements (fix ordern)
variable Nvisc equal 5        # Nevery for viscosity (fix ordern: sample data at (Nvisc*2))
variable Ncond equal 5        # Nevery for Tconductivity (fix ordern: sample data at (Ncond*2))
variable Ndiff equal 1000     # Nevery for diffusivity (fix ordern: sample data at (Ndiff))
variable Nwrit equal 100000   # Nwrite for transport properties (fix ordern: write every (Nwrit))

variable Nrdfe equal 1000     # Nevery for RDF (fix ave/time)
variable Nrdfw equal 1000     # Nwrite for RDF (compute rdf/ext: write every (Nrdfw*Nrdfe))
variable binnum equal 2000    # Number of bins for RDF

#################### ATOM DEFINITION and FORCEFIELD ####################
read_data ./data.lmp                     # read the positions
Reading data file ...
  orthogonal box = (0 0 0) to (26.379509 26.379509 26.379509)
  reading atoms ...
  1608 atoms
  scanning bonds ...
  scanning angles ...
  reading bonds ...
  1000 bonds
  reading angles ...
  500 angles
Finding 1-2 1-3 1-4 neighbors ...
     2 = max # of 1-2 neighbors
     1 = max # of 1-3 neighbors
     1 = max # of 1-4 neighbors
     2 = max # of special neighbors
include ./forcefield.data                # read the force field
#--------INTERMOLECULAR POTENTIAL -------------------#
# --------Developed for MadridT KCl + TIP4P/2005-----#

mass 1 15.9994	# Ow
mass 2 1.008	# Hw
mass 3 6.941	# Li
mass 4 35.453	# Cl

pair_style lj/cut/tip4p/long 1 2 1 1 0.1546 10.0
kspace_style pppm/tip4p 1.0e-5
pair_modify mix arithmetic tail yes # ATC and Lorentz-Berthelot combining rules

#-----------------Combinations----------------------------
# atomtype atomtype epsilon sigma

pair_coeff 1 1 0.185200 3.15890    # Ow-Ow
pair_coeff 1 2 0.000000 0.00000    # Ow-Hw
pair_coeff 1 3 0.167459 2.12000    # Ow-Li
pair_coeff 1 4 0.014814 4.23867    # Ow-Cl

pair_coeff 2 2 0.000000 0.00000    # Hw-Hw
pair_coeff 2 3 0.000000 0.00000    # Hw-K
pair_coeff 2 4 0.000000 0.00000    # Hw-Cl

pair_coeff 3 3 0.103989 1.43970    # Li-Li
pair_coeff 3 4 0.306631 2.70000    # Li-Cl

pair_coeff 4 4 0.018385 4.69906    # Cl-Cl

bond_style  harmonic
bond_coeff 1 2000 0.9572           # Ow-Hw

angle_style harmonic
angle_coeff 1 200 104.52           # H-Ow-H

#dihedral_style none
#improper_style none

set type 1 charge -1.1128          # O
Setting atom values ...
  500 settings made for charge
set type 2 charge +0.5564          # OH
Setting atom values ...
  1000 settings made for charge
set type 3 charge +0.8500          # Li
Setting atom values ...
  54 settings made for charge
set type 4 charge -0.8500          # Cl
Setting atom values ...
  54 settings made for charge

#################### INITIALIZATION ####################
group wat type 1		# O water
500 atoms in group wat
group Li type 3			# Potasium ion
54 atoms in group Li
group Cl type 4			# Chlorine ion
54 atoms in group Cl

# neigbor lists
neighbor 2.0 bin
neigh_modify every 1 delay 0 check yes

# velocity-Verlet integrator
run_style verlet

# minimizing the system using the conjugate gradient method
min_style cg
min_modify dmax 0.05
minimize 1.0e-6 1.0e-6 1000 10000
PPPM initialization ...
  extracting TIP4P info from pair style
  G vector (1/distance) = 0.31127036
  grid = 25 25 25
  stencil order = 5
  estimated absolute RMS force accuracy = 0.0034097995
  estimated relative force accuracy = 1.026851e-05
  3d grid and FFT values/proc = 6400 1875
Generated 0 of 6 mixed pair_coeff terms from arithmetic mixing rule
  update every 1 steps, delay 0 steps, check yes
Step          Temp          E_pair         E_mol          TotEng         Press
0   0              641.68376      3.1566538e-05  641.68379      52703.279
Loop time of 5.94178 on 12 procs for 1000 steps with 1608 atoms

Minimization stats:
  Stopping criterion = max iterations
  Energy initial, next-to-last, final =
  Force two-norm initial, final = 2112.4623 42.476166
  Force max component initial, final = 608.22136 9.3161348
  Final line search alpha, max atom move = 0.0026960674 0.025116928
  Iterations, force evaluations = 1000 1842

reset_timestep 0

# initializing velocities
velocity all create 298.15 87

# rate of writing thermal properties to the log file
thermo_style custom step density temp press etotal
thermo_modify flush yes
thermo 100000

#################### 2) Initialize the NPT ensemble ####################
######### Go to the correct temperature now ant initiate that ##########
fix constrain all shake 1.0e-6 1000 0 b 1 a 1
       0 = # of size 2 clusters
       0 = # of size 3 clusters
       0 = # of size 4 clusters
     500 = # of frozen angles
  find clusters CPU = 0.001 seconds
fix integrate all npt temp 298.15 298.15 10.0 iso 1 1 100.0

# Initializing the whole system with very small timesteps in the NPT ensemble
timestep 0.001
run 10000
PPPM initialization ...
  extracting TIP4P info from pair style
  G vector (1/distance) = 0.31127036
  grid = 25 25 25
  stencil order = 5
  estimated absolute RMS force accuracy = 0.0034097995
  estimated relative force accuracy = 1.026851e-05
  3d grid and FFT values/proc = 6400 1875
Generated 0 of 6 mixed pair_coeff terms from arithmetic mixing rule
Step        Density          Temp          Press          TotEng
0   1.0219065      432.81576     -2800507.3     -14267.536
Loop time of 42.3984 on 12 procs for 10000 steps with 1608 atoms

timestep 0.01
run 10000
PPPM initialization ...
  extracting TIP4P info from pair style
  G vector (1/distance) = 0.31149199
  grid = 25 25 25
  stencil order = 5
  estimated absolute RMS force accuracy = 0.0033785963
  estimated relative force accuracy = 1.0174542e-05
  3d grid and FFT values/proc = 6400 1875
Generated 0 of 6 mixed pair_coeff terms from arithmetic mixing rule
Step        Density          Temp          Press          TotEng
10000   1.0314261      172.1899      -187736.65     -14467.15
Loop time of 42.3365 on 12 procs for 10000 steps with 1608 atoms

timestep 0.1
run 10000
PPPM initialization ...
  extracting TIP4P info from pair style
  G vector (1/distance) = 0.31142794
  grid = 25 25 25
  stencil order = 5
  estimated absolute RMS force accuracy = 0.0033875869
  estimated relative force accuracy = 1.0201617e-05
  3d grid and FFT values/proc = 6400 1875
Generated 0 of 6 mixed pair_coeff terms from arithmetic mixing rule
Step        Density          Temp          Press          TotEng
20000   1.0286648      309.99546     -18042.141     -13388.452
Loop time of 44.509 on 12 procs for 10000 steps with 1608 atoms

timestep 0.2
run 10000
PPPM initialization ...
  extracting TIP4P info from pair style
  G vector (1/distance) = 0.30985169
  grid = 24 24 24
  stencil order = 5
  estimated absolute RMS force accuracy = 0.0038443308
  estimated relative force accuracy = 1.1577088e-05
  3d grid and FFT values/proc = 5415 1152
Generated 0 of 6 mixed pair_coeff terms from arithmetic mixing rule
Step        Density          Temp          Press          TotEng
30000   1.0886584      310.69839      2854.1922     -13631.067
Loop time of 42.7774 on 12 procs for 10000 steps with 1608 atoms

timestep 0.5
run 10000
PPPM initialization ...
  extracting TIP4P info from pair style
  G vector (1/distance) = 0.31013767
  grid = 24 24 24
  stencil order = 5
  estimated absolute RMS force accuracy = 0.0037992338
  estimated relative force accuracy = 1.144128e-05
  3d grid and FFT values/proc = 5415 1152
Generated 0 of 6 mixed pair_coeff terms from arithmetic mixing rule
Step        Density          Temp          Press          TotEng
40000   1.1016637      313.19689      3075.6236     -13697.011
Loop time of 44.7035 on 12 procs for 10000 steps with 1608 atoms

reset_timestep 0

# continuing the initialization with the final value of timestep
unfix integrate
fix integrate all npt temp 298.15 298.15 100.0 iso 1 1 1000.0

timestep 1

run 5000000
PPPM initialization ...
  extracting TIP4P info from pair style
  G vector (1/distance) = 0.31080016
  grid = 24 24 24
  stencil order = 5
  estimated absolute RMS force accuracy = 0.0036966282
  estimated relative force accuracy = 1.1132286e-05
  3d grid and FFT values/proc = 5415 1152
Generated 0 of 6 mixed pair_coeff terms from arithmetic mixing rule
Step        Density          Temp          Press          TotEng
0   1.1324548      288.62131     -16.885215     -13855.186
Averages over the last 26 of 51 rows, steps 2500000 to 5000000:
Density Temp Press TotEng
1.11328 300.834 -164.18 -13908.8
Loop time of 22767.7 on 12 procs for 5000000 steps with 1608 atoms

reset_timestep 0

#################### 3) Obtaining average volume in NPT ######################
# Creating restart files
restart 100000 1.restart 2.restart

# Getting the average volume of the system
variable Volume equal vol
fix VoluAve all ave/time 1 5000000 5000000 v_Volume file volume.dat

variable Dens equal density
fix DensAve all ave/time 1 50000 50000 v_Dens file density.dat

compute T1 all temp
fix TempAve1 all ave/time 1 50000 50000 c_T1 file temperatureNPT.dat

compute P1 all pressure T1
fix PressAve1 all ave/time 1 50000 50000 c_P1 file pressureNPT.dat

run 5000000
PPPM initialization ...
  extracting TIP4P info from pair style
  G vector (1/distance) = 0.31037071
  grid = 24 24 24
  stencil order = 5
  estimated absolute RMS force accuracy = 0.003762846
  estimated relative force accuracy = 1.1331699e-05
  3d grid and FFT values/proc = 5415 1152
Generated 0 of 6 mixed pair_coeff terms from arithmetic mixing rule
Step        Density          Temp          Press          TotEng
0   1.1123882      291.91781     -284.2439      -13945.776
Averages over the last 26 of 51 rows, steps 2500000 to 5000000:
Density Temp Press TotEng
1.11151 298.901 1.87421 -13920
Loop time of 23060 on 12 procs for 5000000 steps with 1608 atoms

#################### 4) Initializing the NVT ensemble ####################
# scaling the size of the system to the average volume
variable sidesize equal (f_VoluAve^(1.0/3.0))    # get the volume
variable xlow equal xlo
variable ylow equal ylo
variable zlow equal zlo
variable xhig equal (xlo+25.6308467499548)
variable yhig equal (ylo+25.6308467499548)
variable zhig equal (zlo+25.6308467499548)
change_box all x final 0.367833611359012 25.9986803613138 y final 0.367833611359012 25.9986803613138 z final 0.367833611359012 25.9986803613138
Changing box ...
  orthogonal box = (0.36783361 0.36783361 0.36783361) to (25.99868 26.011675 26.011675)
  orthogonal box = (0.36783361 0.36783361 0.36783361) to (25.99868 25.99868 26.011675)
  orthogonal box = (0.36783361 0.36783361 0.36783361) to (25.99868 25.99868 25.99868)
unfix DensAve
unfix VoluAve
unfix TempAve1
unfix PressAve1

# changing the ensemble to NVT
unfix integrate
fix integrate all nvt temp 298.15 298.15 10.0

timestep 0.001
run 10000
PPPM initialization ...
  extracting TIP4P info from pair style
  G vector (1/distance) = 0.31040757
  grid = 24 24 24
  stencil order = 5
  estimated absolute RMS force accuracy = 0.0037571187
  estimated relative force accuracy = 1.1314451e-05
  3d grid and FFT values/proc = 5415 1152
Generated 0 of 6 mixed pair_coeff terms from arithmetic mixing rule
Step        Density          Temp          Press          TotEng
5000000   1.1140955      291.64529      157522.62     -13906.15
Loop time of 30.6728 on 12 procs for 10000 steps with 1608 atoms

timestep 0.01
run 10000
PPPM initialization ...
  extracting TIP4P info from pair style
  G vector (1/distance) = 0.31040757
  grid = 24 24 24
  stencil order = 5
  estimated absolute RMS force accuracy = 0.0037571187
  estimated relative force accuracy = 1.1314451e-05
  3d grid and FFT values/proc = 5415 1152
Generated 0 of 6 mixed pair_coeff terms from arithmetic mixing rule
Step        Density          Temp          Press          TotEng
5010000   1.1140955      298.36391      427.21134     -13889.88
Loop time of 30.4743 on 12 procs for 10000 steps with 1608 atoms

timestep 0.1
run 10000
PPPM initialization ...
  extracting TIP4P info from pair style
  G vector (1/distance) = 0.31040757
  grid = 24 24 24
  stencil order = 5
  estimated absolute RMS force accuracy = 0.0037571187
  estimated relative force accuracy = 1.1314451e-05
  3d grid and FFT values/proc = 5415 1152
Generated 0 of 6 mixed pair_coeff terms from arithmetic mixing rule
Step        Density          Temp          Press          TotEng
5020000   1.1140955      301.6076       420.1686      -13856.056
Loop time of 30.6152 on 12 procs for 10000 steps with 1608 atoms

timestep 0.2
run 10000
PPPM initialization ...
  extracting TIP4P info from pair style
  G vector (1/distance) = 0.31040757
  grid = 24 24 24
  stencil order = 5
  estimated absolute RMS force accuracy = 0.0037571187
  estimated relative force accuracy = 1.1314451e-05
  3d grid and FFT values/proc = 5415 1152
Generated 0 of 6 mixed pair_coeff terms from arithmetic mixing rule
Step        Density          Temp          Press          TotEng
5030000   1.1140955      300.67808     -374.01387     -13865.916
Loop time of 30.919 on 12 procs for 10000 steps with 1608 atoms

timestep 0.5
run 10000
PPPM initialization ...
  extracting TIP4P info from pair style
  G vector (1/distance) = 0.31040757
  grid = 24 24 24
  stencil order = 5
  estimated absolute RMS force accuracy = 0.0037571187
  estimated relative force accuracy = 1.1314451e-05
  3d grid and FFT values/proc = 5415 1152
Generated 0 of 6 mixed pair_coeff terms from arithmetic mixing rule
Step        Density          Temp          Press          TotEng
5040000   1.1140955      303.50265     -135.85406     -13903.448
Loop time of 31.2034 on 12 procs for 10000 steps with 1608 atoms

unfix integrate
fix integrate all nvt temp 298.15 298.15 100.0
# continuing the initialization with the final value of timestep
timestep 1

run 2500000
PPPM initialization ...
  extracting TIP4P info from pair style
  G vector (1/distance) = 0.31040757
  grid = 24 24 24
  stencil order = 5
  estimated absolute RMS force accuracy = 0.0037571187
  estimated relative force accuracy = 1.1314451e-05
  3d grid and FFT values/proc = 5415 1152
Generated 0 of 6 mixed pair_coeff terms from arithmetic mixing rule
Step        Density          Temp          Press          TotEng
5050000   1.1140955      284.29899      570.53348     -13973.168
Averages over the last 14 of 27 rows, steps 6300000 to 7550000:
Density Temp Press TotEng
1.1141 298.329 -28.0065 -13929.7
Loop time of 7987.2 on 12 procs for 2500000 steps with 1608 atoms

reset_timestep 0

#################### 2) Production in NVT ensemble #####################
# computing average total energy, pontential energy, temperature, and pressure over time
variable TotEn equal etotal
fix TEAve all ave/time 1 100000 100000 v_TotEn file TotalE.dat

variable PotEn equal pe
fix PEAve all ave/time 1 100000 100000 v_PotEn file PotenE.dat

compute T all temp
fix TempAve all ave/time 1 100000 100000 c_T file temperature.dat

compute P all pressure T
fix PressAve all ave/time 1 100000 100000 c_P file pressure.dat

# computing self-diffusion and Onsager coefficients using the OCTP plugin
compute positions all position
fix f1 all ordern diffusivity 1000 100000 c_positions nb 10 nbe 20

# computing shear and bulk viscosities  using the OCTP plugin
fix f2 all ordern viscosity 5 100000 c_P nb 10 nbe 20

# computing thermal conductivity using the OCTP plugin
compute KE all ke/atom
compute PE all pe/atom
compute ST all stress/atom NULL virial
compute heatflux all heat/flux KE PE ST
fix f3 all ordern thermalconductivity 5 100000 c_heatflux nb 10 nbe 20

# computing the RDF for all group pairs
compute rdfs all rdf/ext Nbin 2000 Nwrite 1000
fix f4 all ave/time 1 1 1000 c_rdfs

dump trjectory all xyz 100000 movie.xyz
dump_modify trjectory element Ow H K Cl

run 250000

CITE-CITE-CITE-CITE-CITE-CITE-CITE-CITE-CITE-CITE-CITE-CITE-CITE

Your simulation uses code contributions which should be cited:

- fix ave/ordern command:

@Article{Jamali2019,
 author = {Jamali, Seyed Hossein and Wolf, Ludger and Becker, Tim M. and de Groen, Maritte and Ramdin, Mahinder and Hartkamp, Remco and Bardow, Andr and Vlugt, Thijs J. H. and Moultos, Othonas A.},
 title = {OCTP: A Tool for On-the-Fly Calculation of Transport Properties of Fluids with the Order-n Algorithm in LAMMPS},
 doi = {10.1021/acs.jcim.8b00939},
 journal = {J. Chem. Inf. Model.},
 year = {2019},
 volume = {59},
 pages = {1290-1294}
 }

CITE-CITE-CITE-CITE-CITE-CITE-CITE-CITE-CITE-CITE-CITE-CITE-CITE

PPPM initialization ...
  extracting TIP4P info from pair style
  G vector (1/distance) = 0.31040757
  grid = 24 24 24
  stencil order = 5
  estimated absolute RMS force accuracy = 0.0037571187
  estimated relative force accuracy = 1.1314451e-05
  3d grid and FFT values/proc = 5415 1152
Generated 0 of 6 mixed pair_coeff terms from arithmetic mixing rule
Step        Density          Temp          Press          TotEng
0   1.1140955      290.59881     -627.44388     -13930.276
Loop time of 1275.29 on 12 procs for 250000 steps with 1608 atoms

shell bash copy_files.sh dt_1 00.25Mstep

run 250000
PPPM initialization ...
  extracting TIP4P info from pair style
  G vector (1/distance) = 0.31040757
  grid = 24 24 24
  stencil order = 5
  estimated absolute RMS force accuracy = 0.0037571187
  estimated relative force accuracy = 1.1314451e-05
  3d grid and FFT values/proc = 5415 1152
Generated 0 of 6 mixed pair_coeff terms from arithmetic mixing rule
Step        Density          Temp          Press          TotEng
250000   1.1140955      303.45476     -272.74227     -13872.922
Loop time of 1271.61 on 12 procs for 250000 steps with 1608 atoms

shell bash copy_files.sh dt_1 00.50Mstep

run 250000
PPPM initialization ...
  extracting TIP4P info from pair style
  G vector (1/distance) = 0.31040757
  grid = 24 24 24
  stencil order = 5
  estimated absolute RMS force accuracy = 0.0037571187
  estimated relative force accuracy = 1.1314451e-05
  3d grid and FFT values/proc = 5415 1152
Generated 0 of 6 mixed pair_coeff terms from arithmetic mixing rule
Step        Density          Temp          Press          TotEng
500000   1.1140955      295.55698     -120.14078     -13893.736
Loop time of 1280.3 on 12 procs for 250000 steps with 1608 atoms

shell bash copy_files.sh dt_1 00.75Mstep

run 250000
PPPM initialization ...
  extracting TIP4P info from pair style
  G vector (1/distance) = 0.31040757
  grid = 24 24 24
  stencil order = 5
  estimated absolute RMS force accuracy = 0.0037571187
  estimated relative force accuracy = 1.1314451e-05
  3d grid and FFT values/proc = 5415 1152
Generated 0 of 6 mixed pair_coeff terms from arithmetic mixing rule
Step        Density          Temp          Press          TotEng
750000   1.1140955      289.35057     -446.73021     -13936.435
Loop time of 1272.69 on 12 procs for 250000 steps with 1608 atoms

shell bash copy_files.sh dt_1 01.00Mstep

run 250000
PPPM initialization ...
  extracting TIP4P info from pair style
  G vector (1/distance) = 0.31040757
  grid = 24 24 24
  stencil order = 5
  estimated absolute RMS force accuracy = 0.0037571187
  estimated relative force accuracy = 1.1314451e-05
  3d grid and FFT values/proc = 5415 1152
Generated 0 of 6 mixed pair_coeff terms from arithmetic mixing rule
Step        Density          Temp          Press          TotEng
1000000   1.1140955      295.74486     -243.1922      -13884.114
Loop time of 1283.81 on 12 procs for 250000 steps with 1608 atoms

shell bash copy_files.sh dt_1 01.25Mstep

run 250000
PPPM initialization ...
  extracting TIP4P info from pair style
  G vector (1/distance) = 0.31040757
  grid = 24 24 24
  stencil order = 5
  estimated absolute RMS force accuracy = 0.0037571187
  estimated relative force accuracy = 1.1314451e-05
  3d grid and FFT values/proc = 5415 1152
Generated 0 of 6 mixed pair_coeff terms from arithmetic mixing rule
Step        Density          Temp          Press          TotEng
1250000   1.1140955      319.08018      121.25466     -13822.051
Loop time of 1279.15 on 12 procs for 250000 steps with 1608 atoms

shell bash copy_files.sh dt_1 01.50Mstep

run 250000
PPPM initialization ...
  extracting TIP4P info from pair style
  G vector (1/distance) = 0.31040757
  grid = 24 24 24
  stencil order = 5
  estimated absolute RMS force accuracy = 0.0037571187
  estimated relative force accuracy = 1.1314451e-05
  3d grid and FFT values/proc = 5415 1152
Generated 0 of 6 mixed pair_coeff terms from arithmetic mixing rule
Step        Density          Temp          Press          TotEng
1500000   1.1140955      308.41239      203.87881     -13883.33
Loop time of 1270.91 on 12 procs for 250000 steps with 1608 atoms

shell bash copy_files.sh dt_1 01.75Mstep

run 250000
PPPM initialization ...
  extracting TIP4P info from pair style
  G vector (1/distance) = 0.31040757
  grid = 24 24 24
  stencil order = 5
  estimated absolute RMS force accuracy = 0.0037571187
  estimated relative force accuracy = 1.1314451e-05
  3d grid and FFT values/proc = 5415 1152
Generated 0 of 6 mixed pair_coeff terms from arithmetic mixing rule
Step        Density          Temp          Press          TotEng
1750000   1.1140955      310.29254     -347.78456     -13850.862
Loop time of 1269.56 on 12 procs for 250000 steps with 1608 atoms

shell bash copy_files.sh dt_1 02.00step

run 1000000
PPPM initialization ...
  extracting TIP4P info from pair style
  G vector (1/distance) = 0.31040757
  grid = 24 24 24
  stencil order = 5
  estimated absolute RMS force accuracy = 0.0037571187
  estimated relative force accuracy = 1.1314451e-05
  3d grid and FFT values/proc = 5415 1152
Generated 0 of 6 mixed pair_coeff terms from arithmetic mixing rule
Step        Density          Temp          Press          TotEng
2000000   1.1140955      304.3585      -790.37962     -13855.467
Averages over the last 6 of 11 rows, steps 2500000 to 3000000:
Density Temp Press TotEng
1.1141 294.975 -143.44 -13927.2
Loop time of 5053.37 on 12 procs for 1000000 steps with 1608 atoms

shell bash copy_files.sh dt_1 03.00Mstep

run 1000000
PPPM initialization ...
  extracting TIP4P info from pair style
  G vector (1/distance) = 0.31040757
  grid = 24 24 24
  stencil order = 5
  estimated absolute RMS force accuracy = 0.0037571187
  estimated relative force accuracy = 1.1314451e-05
  3d grid and FFT values/proc = 5415 1152
Generated 0 of 6 mixed pair_coeff terms from arithmetic mixing rule
Step        Density          Temp          Press          TotEng
3000000   1.1140955      288.47448      24.066756     -13950.498
Averages over the last 6 of 11 rows, steps 3500000 to 4000000:
Density Temp Press TotEng
1.1141 297.442 -133.326 -13902.1
Loop time of 5082.15 on 12 procs for 1000000 steps with 1608 atoms

shell bash copy_files.sh dt_1 04.00Mstep

run 1000000
PPPM initialization ...
  extracting TIP4P info from pair style
  G vector (1/distance) = 0.31040757
  grid = 24 24 24
  stencil order = 5
  estimated absolute RMS force accuracy = 0.0037571187
  estimated relative force accuracy = 1.1314451e-05
  3d grid and FFT values/proc = 5415 1152
Generated 0 of 6 mixed pair_coeff terms from arithmetic mixing rule
Step        Density          Temp          Press          TotEng
4000000   1.1140955      295.66303     -125.81044     -13885.794
Averages over the last 6 of 11 rows, steps 4500000 to 5000000:
Density Temp Press TotEng
1.1141 298.894 -161.486 -13915.5
Loop time of 5101.07 on 12 procs for 1000000 steps with 1608 atoms

shell bash copy_files.sh dt_1 05.00Mstep

run 1000000
PPPM initialization ...
  extracting TIP4P info from pair style
  G vector (1/distance) = 0.31040757
  grid = 24 24 24
  stencil order = 5
  estimated absolute RMS force accuracy = 0.0037571187
  estimated relative force accuracy = 1.1314451e-05
  3d grid and FFT values/proc = 5415 1152
Generated 0 of 6 mixed pair_coeff terms from arithmetic mixing rule
Step        Density          Temp          Press          TotEng
5000000   1.1140955      300.21494      68.476055     -13880.154
Averages over the last 6 of 11 rows, steps 5500000 to 6000000:
Density Temp Press TotEng
1.1141 300.678 -116.591 -13930.5
Loop time of 5080.86 on 12 procs for 1000000 steps with 1608 atoms

shell bash copy_files.sh dt_1 06.00Mstep

run 1000000
PPPM initialization ...
  extracting TIP4P info from pair style
  G vector (1/distance) = 0.31040757
  grid = 24 24 24
  stencil order = 5
  estimated absolute RMS force accuracy = 0.0037571187
  estimated relative force accuracy = 1.1314451e-05
  3d grid and FFT values/proc = 5415 1152
Generated 0 of 6 mixed pair_coeff terms from arithmetic mixing rule
Step        Density          Temp          Press          TotEng
6000000   1.1140955      298.62877      343.1218      -13898.094
Averages over the last 6 of 11 rows, steps 6500000 to 7000000:
Density Temp Press TotEng
1.1141 302.662 339.839 -13891.2
Loop time of 5081.5 on 12 procs for 1000000 steps with 1608 atoms

shell bash copy_files.sh dt_1 07.00Mstep

run 1000000
PPPM initialization ...
  extracting TIP4P info from pair style
  G vector (1/distance) = 0.31040757
  grid = 24 24 24
  stencil order = 5
  estimated absolute RMS force accuracy = 0.0037571187
  estimated relative force accuracy = 1.1314451e-05
  3d grid and FFT values/proc = 5415 1152
Generated 0 of 6 mixed pair_coeff terms from arithmetic mixing rule
Step        Density          Temp          Press          TotEng
7000000   1.1140955      296.0732       233.21913     -13896.047
Averages over the last 6 of 11 rows, steps 7500000 to 8000000:
Density Temp Press TotEng
1.1141 302.392 85.8752 -13905.2
Loop time of 5093.88 on 12 procs for 1000000 steps with 1608 atoms

shell bash copy_files.sh dt_1 08.00Mstep

run 1000000
PPPM initialization ...
  extracting TIP4P info from pair style
  G vector (1/distance) = 0.31040757
  grid = 24 24 24
  stencil order = 5
  estimated absolute RMS force accuracy = 0.0037571187
  estimated relative force accuracy = 1.1314451e-05
  3d grid and FFT values/proc = 5415 1152
Generated 0 of 6 mixed pair_coeff terms from arithmetic mixing rule
Step        Density          Temp          Press          TotEng
8000000   1.1140955      296.35551      786.65503     -13937.757
Averages over the last 6 of 11 rows, steps 8500000 to 9000000:
Density Temp Press TotEng
1.1141 295.598 -29.9776 -13929.3
Loop time of 5093.68 on 12 procs for 1000000 steps with 1608 atoms

shell bash copy_files.sh dt_1 09.00Mstep

run 1000000
PPPM initialization ...
  extracting TIP4P info from pair style
  G vector (1/distance) = 0.31040757
  grid = 24 24 24
  stencil order = 5
  estimated absolute RMS force accuracy = 0.0037571187
  estimated relative force accuracy = 1.1314451e-05
  3d grid and FFT values/proc = 5415 1152
Generated 0 of 6 mixed pair_coeff terms from arithmetic mixing rule
Step        Density          Temp          Press          TotEng
9000000   1.1140955      292.40755      12.715581     -13974.33
Averages over the last 6 of 11 rows, steps 9500000 to 10000000:
Density Temp Press TotEng
1.1141 296.166 77.6028 -13925.9
Loop time of 5089.39 on 12 procs for 1000000 steps with 1608 atoms

shell bash copy_files.sh dt_1 10.00Mstep

run 2500000
PPPM initialization ...
  extracting TIP4P info from pair style
  G vector (1/distance) = 0.31040757
  grid = 24 24 24
  stencil order = 5
  estimated absolute RMS force accuracy = 0.0037571187
  estimated relative force accuracy = 1.1314451e-05
  3d grid and FFT values/proc = 5415 1152
Generated 0 of 6 mixed pair_coeff terms from arithmetic mixing rule
Step        Density          Temp          Press          TotEng
10000000   1.1140955      282.02211     -366.20131     -13944.971
Averages over the last 13 of 26 rows, steps 11300000 to 12500000:
Density Temp Press TotEng
1.1141 297.226 -101.468 -13910.9
Loop time of 12754.7 on 12 procs for 2500000 steps with 1608 atoms

shell bash copy_files.sh dt_1 12.50Mstep

run 2500000
PPPM initialization ...
  extracting TIP4P info from pair style
  G vector (1/distance) = 0.31040757
  grid = 24 24 24
  stencil order = 5
  estimated absolute RMS force accuracy = 0.0037571187
  estimated relative force accuracy = 1.1314451e-05
  3d grid and FFT values/proc = 5415 1152
Generated 0 of 6 mixed pair_coeff terms from arithmetic mixing rule
Step        Density          Temp          Press          TotEng
12500000   1.1140955      290.43149      229.26754     -13926.699
Averages over the last 13 of 26 rows, steps 13800000 to 15000000:
Density Temp Press TotEng
1.1141 299.313 18.0785 -13910.6
Loop time of 12686 on 12 procs for 2500000 steps with 1608 atoms
