LAMMPS (23 Jun 2022 - Update 2)
####################################################
# Preprocessing Li2SO4 in water
#################### SETTING UP ####################
units real
dimension 3
newton on
boundary p p p
atom_style full

#################### VARIABLES ####################
variable Temp equal 298.15    # Temperature in K
variable Pres equal 1    # Pressure in atm.

variable RandomSeed equal 61 # The random seed for velocity
variable tstep equal 2 # timestep in fs

#################### NPT ####################
variable Ninptpre equal 10000 # Pre-initialize the NPT ensemble (very small timesteps)
variable Ninpt equal 5000000  # Initialize the NPT ensemble
variable Npnpt equal 5000000  # Production in the NPT ensemble (volume)

#################### NVT ####################
variable Ninvtpre equal 10000  # Pre-initialize the NVT ensemble (very small timesteps)
variable Ninvt equal 2500000   # Initialize the NVT ensemble 2.5Mstep
variable Nrun1 equal 250000  # production in the NVT ensemble (Transport properties)
variable Nrun2 equal 1000000  # production in the NVT ensemble (Transport properties)
variable Nrun3 equal 2500000  # production in the NVT ensemble (Transport properties)
variable Nrun4 equal 5000000  # production in the NVT ensemble (Transport properties)

variable Nf equal 100000      # Nfreq (fix ave/time and thermo)
variable Ne equal  1          # Nevery (fix ave/time)
variable Nr equal 100000/1
variable Nd equal 100000
variable NBR equal 5000000/100

variable nb equal 10          # Number of blocks (fix ordern)
variable nbe equal 20         # Number of block elements (fix ordern)
variable Nvisc equal 5        # Nevery for viscosity (fix ordern: sample data at (Nvisc*2))
variable Ncond equal 5        # Nevery for Tconductivity (fix ordern: sample data at (Ncond*2))
variable Ndiff equal 1000     # Nevery for diffusivity (fix ordern: sample data at (Ndiff))
variable Nwrit equal 100000   # Nwrite for transport properties (fix ordern: write every (Nwrit))

variable Nrdfe equal 1000     # Nevery for RDF (fix ave/time)
variable Nrdfw equal 1000     # Nwrite for RDF (compute rdf/ext: write every (Nrdfw*Nrdfe))
variable binnum equal 2000    # Number of bins for RDF

#################### ATOM DEFINITION and FORCEFIELD ####################
read_data ./data.lmp                     # read the positions
Reading data file ...
  orthogonal box = (0 0 0) to (26.379509 26.379509 26.379509)
  reading atoms ...
  1608 atoms
  scanning bonds ...
  scanning angles ...
  reading bonds ...
  1000 bonds
  reading angles ...
  500 angles
Finding 1-2 1-3 1-4 neighbors ...
     2 = max # of 1-2 neighbors
     1 = max # of 1-3 neighbors
     1 = max # of 1-4 neighbors
     2 = max # of special neighbors
include ./forcefield.data                # read the force field
#--------INTERMOLECULAR POTENTIAL -------------------#
# --------Developed for MadridT KCl + TIP4P/2005-----#

mass 1 15.9994	# Ow
mass 2 1.008	# Hw
mass 3 6.941	# Li
mass 4 35.453	# Cl

pair_style lj/cut/tip4p/long 1 2 1 1 0.1546 10.0
kspace_style pppm/tip4p 1.0e-5
pair_modify mix arithmetic tail yes # ATC and Lorentz-Berthelot combining rules

#-----------------Combinations----------------------------
# atomtype atomtype epsilon sigma

pair_coeff 1 1 0.185200 3.15890    # Ow-Ow
pair_coeff 1 2 0.000000 0.00000    # Ow-Hw
pair_coeff 1 3 0.167459 2.12000    # Ow-Li
pair_coeff 1 4 0.014814 4.23867    # Ow-Cl

pair_coeff 2 2 0.000000 0.00000    # Hw-Hw
pair_coeff 2 3 0.000000 0.00000    # Hw-K
pair_coeff 2 4 0.000000 0.00000    # Hw-Cl

pair_coeff 3 3 0.103989 1.43970    # Li-Li
pair_coeff 3 4 0.306631 2.70000    # Li-Cl

pair_coeff 4 4 0.018385 4.69906    # Cl-Cl

bond_style  harmonic
bond_coeff 1 2000 0.9572           # Ow-Hw

angle_style harmonic
angle_coeff 1 200 104.52           # H-Ow-H

#dihedral_style none
#improper_style none

set type 1 charge -1.1128          # O
Setting atom values ...
  500 settings made for charge
set type 2 charge +0.5564          # OH
Setting atom values ...
  1000 settings made for charge
set type 3 charge +0.8500          # Li
Setting atom values ...
  54 settings made for charge
set type 4 charge -0.8500          # Cl
Setting atom values ...
  54 settings made for charge

#################### INITIALIZATION ####################
group wat type 1		# O water
500 atoms in group wat
group Li type 3			# Potasium ion
54 atoms in group Li
group Cl type 4			# Chlorine ion
54 atoms in group Cl

# neigbor lists
neighbor 2.0 bin
neigh_modify every 1 delay 0 check yes

# velocity-Verlet integrator
run_style verlet

# minimizing the system using the conjugate gradient method
min_style cg
min_modify dmax 0.05
minimize 1.0e-6 1.0e-6 1000 10000
PPPM initialization ...
  extracting TIP4P info from pair style
  G vector (1/distance) = 0.31127036
  grid = 25 25 25
  stencil order = 5
  estimated absolute RMS force accuracy = 0.0034097995
  estimated relative force accuracy = 1.026851e-05
  3d grid and FFT values/proc = 6400 1875
Generated 0 of 6 mixed pair_coeff terms from arithmetic mixing rule
  update every 1 steps, delay 0 steps, check yes
Step          Temp          E_pair         E_mol          TotEng         Press
0   0              641.68376      3.1566538e-05  641.68379      52703.279
Loop time of 5.93777 on 12 procs for 1000 steps with 1608 atoms

Minimization stats:
  Stopping criterion = max iterations
  Energy initial, next-to-last, final =
  Force two-norm initial, final = 2112.4623 42.476166
  Force max component initial, final = 608.22136 9.3161348
  Final line search alpha, max atom move = 0.0026960674 0.025116928
  Iterations, force evaluations = 1000 1842

reset_timestep 0

# initializing velocities
velocity all create 298.15 61

# rate of writing thermal properties to the log file
thermo_style custom step density temp press etotal
thermo_modify flush yes
thermo 100000

#################### 2) Initialize the NPT ensemble ####################
######### Go to the correct temperature now ant initiate that ##########
fix constrain all shake 1.0e-6 1000 0 b 1 a 1
       0 = # of size 2 clusters
       0 = # of size 3 clusters
       0 = # of size 4 clusters
     500 = # of frozen angles
  find clusters CPU = 0.001 seconds
fix integrate all npt temp 298.15 298.15 10.0 iso 1 1 100.0

# Initializing the whole system with very small timesteps in the NPT ensemble
timestep 0.001
run 10000
PPPM initialization ...
  extracting TIP4P info from pair style
  G vector (1/distance) = 0.31127036
  grid = 25 25 25
  stencil order = 5
  estimated absolute RMS force accuracy = 0.0034097995
  estimated relative force accuracy = 1.026851e-05
  3d grid and FFT values/proc = 6400 1875
Generated 0 of 6 mixed pair_coeff terms from arithmetic mixing rule
Step        Density          Temp          Press          TotEng
0   1.0219065      432.81576     -4299155.1     -14267.536
Loop time of 43.067 on 12 procs for 10000 steps with 1608 atoms

timestep 0.01
run 10000
PPPM initialization ...
  extracting TIP4P info from pair style
  G vector (1/distance) = 0.31150098
  grid = 25 25 25
  stencil order = 5
  estimated absolute RMS force accuracy = 0.0033773356
  estimated relative force accuracy = 1.0170746e-05
  3d grid and FFT values/proc = 6400 1875
Generated 0 of 6 mixed pair_coeff terms from arithmetic mixing rule
Step        Density          Temp          Press          TotEng
10000   1.0318144      171.59248     -187890.95     -14475.485
Loop time of 43.0391 on 12 procs for 10000 steps with 1608 atoms

timestep 0.1
run 10000
PPPM initialization ...
  extracting TIP4P info from pair style
  G vector (1/distance) = 0.31154034
  grid = 25 25 25
  stencil order = 5
  estimated absolute RMS force accuracy = 0.0033718233
  estimated relative force accuracy = 1.0154146e-05
  3d grid and FFT values/proc = 6400 1875
Generated 0 of 6 mixed pair_coeff terms from arithmetic mixing rule
Step        Density          Temp          Press          TotEng
20000   1.0335162      307.74738     -16410.123     -13400.781
Loop time of 44.3473 on 12 procs for 10000 steps with 1608 atoms

timestep 0.2
run 10000
PPPM initialization ...
  extracting TIP4P info from pair style
  G vector (1/distance) = 0.31237534
  grid = 25 25 25
  stencil order = 5
  estimated absolute RMS force accuracy = 0.0032568
  estimated relative force accuracy = 9.8077564e-06
  3d grid and FFT values/proc = 6400 1875
Generated 0 of 6 mixed pair_coeff terms from arithmetic mixing rule
Step        Density          Temp          Press          TotEng
30000   1.0703694      296.54898      8614.3971     -13620.048
Loop time of 45.7486 on 12 procs for 10000 steps with 1608 atoms

timestep 0.5
run 10000
PPPM initialization ...
  extracting TIP4P info from pair style
  G vector (1/distance) = 0.31027259
  grid = 24 24 24
  stencil order = 5
  estimated absolute RMS force accuracy = 0.0037781276
  estimated relative force accuracy = 1.1377719e-05
  3d grid and FFT values/proc = 5415 1152
Generated 0 of 6 mixed pair_coeff terms from arithmetic mixing rule
Step        Density          Temp          Press          TotEng
40000   1.1078588      302.64738      954.24088     -13716.932
Loop time of 44.6523 on 12 procs for 10000 steps with 1608 atoms

reset_timestep 0

# continuing the initialization with the final value of timestep
unfix integrate
fix integrate all npt temp 298.15 298.15 100.0 iso 1 1 1000.0

timestep 2

run 5000000
PPPM initialization ...
  extracting TIP4P info from pair style
  G vector (1/distance) = 0.31080897
  grid = 24 24 24
  stencil order = 5
  estimated absolute RMS force accuracy = 0.0036952819
  estimated relative force accuracy = 1.1128232e-05
  3d grid and FFT values/proc = 5415 1152
Generated 0 of 6 mixed pair_coeff terms from arithmetic mixing rule
Step        Density          Temp          Press          TotEng
0   1.1328704      296.09519      208.14669     -13784.787
Averages over the last 26 of 51 rows, steps 2500000 to 5000000:
Density Temp Press TotEng
1.11281 297.865 79.5941 -13904.3
Loop time of 23381.9 on 12 procs for 5000000 steps with 1608 atoms

reset_timestep 0

#################### 3) Obtaining average volume in NPT ######################
# Creating restart files
restart 100000 1.restart 2.restart

# Getting the average volume of the system
variable Volume equal vol
fix VoluAve all ave/time 1 5000000 5000000 v_Volume file volume.dat

variable Dens equal density
fix DensAve all ave/time 1 50000 50000 v_Dens file density.dat

compute T1 all temp
fix TempAve1 all ave/time 1 50000 50000 c_T1 file temperatureNPT.dat

compute P1 all pressure T1
fix PressAve1 all ave/time 1 50000 50000 c_P1 file pressureNPT.dat

run 5000000
PPPM initialization ...
  extracting TIP4P info from pair style
  G vector (1/distance) = 0.31034717
  grid = 24 24 24
  stencil order = 5
  estimated absolute RMS force accuracy = 0.0037665067
  estimated relative force accuracy = 1.1342723e-05
  3d grid and FFT values/proc = 5415 1152
Generated 0 of 6 mixed pair_coeff terms from arithmetic mixing rule
Step        Density          Temp          Press          TotEng
0   1.1112998      286.23555      1819.9443     -13896.723
Averages over the last 26 of 51 rows, steps 2500000 to 5000000:
Density Temp Press TotEng
1.11262 298.54 38.7364 -13920.8
Loop time of 23505.3 on 12 procs for 5000000 steps with 1608 atoms

#################### 4) Initializing the NVT ensemble ####################
# scaling the size of the system to the average volume
variable sidesize equal (f_VoluAve^(1.0/3.0))    # get the volume
variable xlow equal xlo
variable ylow equal ylo
variable zlow equal zlo
variable xhig equal (xlo+25.6293126857353)
variable yhig equal (ylo+25.6293126857353)
variable zhig equal (zlo+25.6293126857353)
change_box all x final 0.41112780430028 26.0404404900356 y final 0.41112780430028 26.0404404900356 z final 0.41112780430028 26.0404404900356
Changing box ...
  orthogonal box = (0.4111278 0.4111278 0.4111278) to (26.04044 25.968381 25.968381)
  orthogonal box = (0.4111278 0.4111278 0.4111278) to (26.04044 26.04044 25.968381)
  orthogonal box = (0.4111278 0.4111278 0.4111278) to (26.04044 26.04044 26.04044)
unfix DensAve
unfix VoluAve
unfix TempAve1
unfix PressAve1

# changing the ensemble to NVT
unfix integrate
fix integrate all nvt temp 298.15 298.15 10.0

timestep 0.001
run 10000
PPPM initialization ...
  extracting TIP4P info from pair style
  G vector (1/distance) = 0.31041189
  grid = 24 24 24
  stencil order = 5
  estimated absolute RMS force accuracy = 0.0037564486
  estimated relative force accuracy = 1.1312433e-05
  3d grid and FFT values/proc = 5415 1152
Generated 0 of 6 mixed pair_coeff terms from arithmetic mixing rule
Step        Density          Temp          Press          TotEng
5000000   1.1142955      300.32295     -64984.915     -13979.08
Loop time of 30.4583 on 12 procs for 10000 steps with 1608 atoms

timestep 0.01
run 10000
PPPM initialization ...
  extracting TIP4P info from pair style
  G vector (1/distance) = 0.31041189
  grid = 24 24 24
  stencil order = 5
  estimated absolute RMS force accuracy = 0.0037564486
  estimated relative force accuracy = 1.1312433e-05
  3d grid and FFT values/proc = 5415 1152
Generated 0 of 6 mixed pair_coeff terms from arithmetic mixing rule
Step        Density          Temp          Press          TotEng
5010000   1.1142955      294.98706     -1974.7512     -13932.468
Loop time of 29.9769 on 12 procs for 10000 steps with 1608 atoms

timestep 0.1
run 10000
PPPM initialization ...
  extracting TIP4P info from pair style
  G vector (1/distance) = 0.31041189
  grid = 24 24 24
  stencil order = 5
  estimated absolute RMS force accuracy = 0.0037564486
  estimated relative force accuracy = 1.1312433e-05
  3d grid and FFT values/proc = 5415 1152
Generated 0 of 6 mixed pair_coeff terms from arithmetic mixing rule
Step        Density          Temp          Press          TotEng
5020000   1.1142955      293.02558     -1051.1075     -13972.891
Loop time of 30.9351 on 12 procs for 10000 steps with 1608 atoms

timestep 0.2
run 10000
PPPM initialization ...
  extracting TIP4P info from pair style
  G vector (1/distance) = 0.31041189
  grid = 24 24 24
  stencil order = 5
  estimated absolute RMS force accuracy = 0.0037564486
  estimated relative force accuracy = 1.1312433e-05
  3d grid and FFT values/proc = 5415 1152
Generated 0 of 6 mixed pair_coeff terms from arithmetic mixing rule
Step        Density          Temp          Press          TotEng
5030000   1.1142955      286.89261     -418.73117     -14003.459
Loop time of 30.5913 on 12 procs for 10000 steps with 1608 atoms

timestep 0.5
run 10000
PPPM initialization ...
  extracting TIP4P info from pair style
  G vector (1/distance) = 0.31041189
  grid = 24 24 24
  stencil order = 5
  estimated absolute RMS force accuracy = 0.0037564486
  estimated relative force accuracy = 1.1312433e-05
  3d grid and FFT values/proc = 5415 1152
Generated 0 of 6 mixed pair_coeff terms from arithmetic mixing rule
Step        Density          Temp          Press          TotEng
5040000   1.1142955      299.93315      395.20112     -13981.832
Loop time of 31.1881 on 12 procs for 10000 steps with 1608 atoms

unfix integrate
fix integrate all nvt temp 298.15 298.15 100.0
# continuing the initialization with the final value of timestep
timestep 2

run 2500000
PPPM initialization ...
  extracting TIP4P info from pair style
  G vector (1/distance) = 0.31041189
  grid = 24 24 24
  stencil order = 5
  estimated absolute RMS force accuracy = 0.0037564486
  estimated relative force accuracy = 1.1312433e-05
  3d grid and FFT values/proc = 5415 1152
Generated 0 of 6 mixed pair_coeff terms from arithmetic mixing rule
Step        Density          Temp          Press          TotEng
5050000   1.1142955      313.97694     -158.03305     -13915.457
Averages over the last 14 of 27 rows, steps 6300000 to 7550000:
Density Temp Press TotEng
1.1143 300.001 -80.0065 -13906.9
Loop time of 8282.11 on 12 procs for 2500000 steps with 1608 atoms

reset_timestep 0

#################### 2) Production in NVT ensemble #####################
# computing average total energy, pontential energy, temperature, and pressure over time
variable TotEn equal etotal
fix TEAve all ave/time 1 100000 100000 v_TotEn file TotalE.dat

variable PotEn equal pe
fix PEAve all ave/time 1 100000 100000 v_PotEn file PotenE.dat

compute T all temp
fix TempAve all ave/time 1 100000 100000 c_T file temperature.dat

compute P all pressure T
fix PressAve all ave/time 1 100000 100000 c_P file pressure.dat

# computing self-diffusion and Onsager coefficients using the OCTP plugin
compute positions all position
fix f1 all ordern diffusivity 1000 100000 c_positions nb 10 nbe 20

# computing shear and bulk viscosities  using the OCTP plugin
fix f2 all ordern viscosity 5 100000 c_P nb 10 nbe 20

# computing thermal conductivity using the OCTP plugin
compute KE all ke/atom
compute PE all pe/atom
compute ST all stress/atom NULL virial
compute heatflux all heat/flux KE PE ST
fix f3 all ordern thermalconductivity 5 100000 c_heatflux nb 10 nbe 20

# computing the RDF for all group pairs
compute rdfs all rdf/ext Nbin 2000 Nwrite 1000
fix f4 all ave/time 1 1 1000 c_rdfs

dump trjectory all xyz 100000 movie.xyz
dump_modify trjectory element Ow H K Cl

run 250000

CITE-CITE-CITE-CITE-CITE-CITE-CITE-CITE-CITE-CITE-CITE-CITE-CITE

Your simulation uses code contributions which should be cited:

- fix ave/ordern command:

@Article{Jamali2019,
 author = {Jamali, Seyed Hossein and Wolf, Ludger and Becker, Tim M. and de Groen, Maritte and Ramdin, Mahinder and Hartkamp, Remco and Bardow, Andr and Vlugt, Thijs J. H. and Moultos, Othonas A.},
 title = {OCTP: A Tool for On-the-Fly Calculation of Transport Properties of Fluids with the Order-n Algorithm in LAMMPS},
 doi = {10.1021/acs.jcim.8b00939},
 journal = {J. Chem. Inf. Model.},
 year = {2019},
 volume = {59},
 pages = {1290-1294}
 }

CITE-CITE-CITE-CITE-CITE-CITE-CITE-CITE-CITE-CITE-CITE-CITE-CITE

PPPM initialization ...
  extracting TIP4P info from pair style
  G vector (1/distance) = 0.31041189
  grid = 24 24 24
  stencil order = 5
  estimated absolute RMS force accuracy = 0.0037564486
  estimated relative force accuracy = 1.1312433e-05
  3d grid and FFT values/proc = 5415 1152
Generated 0 of 6 mixed pair_coeff terms from arithmetic mixing rule
Step        Density          Temp          Press          TotEng
0   1.1142955      312.29935     -256.19624     -13889.007
Loop time of 1307.83 on 12 procs for 250000 steps with 1608 atoms

shell bash copy_files.sh dt_2 00.25Mstep

run 250000
PPPM initialization ...
  extracting TIP4P info from pair style
  G vector (1/distance) = 0.31041189
  grid = 24 24 24
  stencil order = 5
  estimated absolute RMS force accuracy = 0.0037564486
  estimated relative force accuracy = 1.1312433e-05
  3d grid and FFT values/proc = 5415 1152
Generated 0 of 6 mixed pair_coeff terms from arithmetic mixing rule
Step        Density          Temp          Press          TotEng
250000   1.1142955      301.4009       718.51494     -13953.942
Loop time of 1306.95 on 12 procs for 250000 steps with 1608 atoms

shell bash copy_files.sh dt_2 00.50Mstep

run 250000
PPPM initialization ...
  extracting TIP4P info from pair style
  G vector (1/distance) = 0.31041189
  grid = 24 24 24
  stencil order = 5
  estimated absolute RMS force accuracy = 0.0037564486
  estimated relative force accuracy = 1.1312433e-05
  3d grid and FFT values/proc = 5415 1152
Generated 0 of 6 mixed pair_coeff terms from arithmetic mixing rule
Step        Density          Temp          Press          TotEng
500000   1.1142955      298.11605     -581.40668     -13877.314
Loop time of 1312.96 on 12 procs for 250000 steps with 1608 atoms

shell bash copy_files.sh dt_2 00.75Mstep

run 250000
PPPM initialization ...
  extracting TIP4P info from pair style
  G vector (1/distance) = 0.31041189
  grid = 24 24 24
  stencil order = 5
  estimated absolute RMS force accuracy = 0.0037564486
  estimated relative force accuracy = 1.1312433e-05
  3d grid and FFT values/proc = 5415 1152
Generated 0 of 6 mixed pair_coeff terms from arithmetic mixing rule
Step        Density          Temp          Press          TotEng
750000   1.1142955      298.16784      442.18914     -13912.981
Loop time of 1304.96 on 12 procs for 250000 steps with 1608 atoms

shell bash copy_files.sh dt_2 01.00Mstep

run 250000
PPPM initialization ...
  extracting TIP4P info from pair style
  G vector (1/distance) = 0.31041189
  grid = 24 24 24
  stencil order = 5
  estimated absolute RMS force accuracy = 0.0037564486
  estimated relative force accuracy = 1.1312433e-05
  3d grid and FFT values/proc = 5415 1152
Generated 0 of 6 mixed pair_coeff terms from arithmetic mixing rule
Step        Density          Temp          Press          TotEng
1000000   1.1142955      287.45108     -586.0034      -13928.786
Loop time of 1314.17 on 12 procs for 250000 steps with 1608 atoms

shell bash copy_files.sh dt_2 01.25Mstep

run 250000
PPPM initialization ...
  extracting TIP4P info from pair style
  G vector (1/distance) = 0.31041189
  grid = 24 24 24
  stencil order = 5
  estimated absolute RMS force accuracy = 0.0037564486
  estimated relative force accuracy = 1.1312433e-05
  3d grid and FFT values/proc = 5415 1152
Generated 0 of 6 mixed pair_coeff terms from arithmetic mixing rule
Step        Density          Temp          Press          TotEng
1250000   1.1142955      298.79831     -1262.7022     -13899.882
Loop time of 1304.3 on 12 procs for 250000 steps with 1608 atoms

shell bash copy_files.sh dt_2 01.50Mstep

run 250000
PPPM initialization ...
  extracting TIP4P info from pair style
  G vector (1/distance) = 0.31041189
  grid = 24 24 24
  stencil order = 5
  estimated absolute RMS force accuracy = 0.0037564486
  estimated relative force accuracy = 1.1312433e-05
  3d grid and FFT values/proc = 5415 1152
Generated 0 of 6 mixed pair_coeff terms from arithmetic mixing rule
Step        Density          Temp          Press          TotEng
1500000   1.1142955      303.82327      168.29892     -13858.977
Loop time of 1308.09 on 12 procs for 250000 steps with 1608 atoms

shell bash copy_files.sh dt_2 01.75Mstep

run 250000
PPPM initialization ...
  extracting TIP4P info from pair style
  G vector (1/distance) = 0.31041189
  grid = 24 24 24
  stencil order = 5
  estimated absolute RMS force accuracy = 0.0037564486
  estimated relative force accuracy = 1.1312433e-05
  3d grid and FFT values/proc = 5415 1152
Generated 0 of 6 mixed pair_coeff terms from arithmetic mixing rule
Step        Density          Temp          Press          TotEng
1750000   1.1142955      302.02031     -321.54573     -13953.269
Loop time of 1304.88 on 12 procs for 250000 steps with 1608 atoms

shell bash copy_files.sh dt_2 02.00step

run 1000000
PPPM initialization ...
  extracting TIP4P info from pair style
  G vector (1/distance) = 0.31041189
  grid = 24 24 24
  stencil order = 5
  estimated absolute RMS force accuracy = 0.0037564486
  estimated relative force accuracy = 1.1312433e-05
  3d grid and FFT values/proc = 5415 1152
Generated 0 of 6 mixed pair_coeff terms from arithmetic mixing rule
Step        Density          Temp          Press          TotEng
2000000   1.1142955      308.42802      912.11549     -13862.588
Averages over the last 6 of 11 rows, steps 2500000 to 3000000:
Density Temp Press TotEng
1.1143 300.347 62.4724 -13905.1
Loop time of 5244.7 on 12 procs for 1000000 steps with 1608 atoms

shell bash copy_files.sh dt_2 03.00Mstep

run 1000000
PPPM initialization ...
  extracting TIP4P info from pair style
  G vector (1/distance) = 0.31041189
  grid = 24 24 24
  stencil order = 5
  estimated absolute RMS force accuracy = 0.0037564486
  estimated relative force accuracy = 1.1312433e-05
  3d grid and FFT values/proc = 5415 1152
Generated 0 of 6 mixed pair_coeff terms from arithmetic mixing rule
Step        Density          Temp          Press          TotEng
3000000   1.1142955      298.10506      403.0629      -13930.124
Averages over the last 6 of 11 rows, steps 3500000 to 4000000:
Density Temp Press TotEng
1.1143 297.616 -516.091 -13921.4
Loop time of 5209.96 on 12 procs for 1000000 steps with 1608 atoms

shell bash copy_files.sh dt_2 04.00Mstep

run 1000000
PPPM initialization ...
  extracting TIP4P info from pair style
  G vector (1/distance) = 0.31041189
  grid = 24 24 24
  stencil order = 5
  estimated absolute RMS force accuracy = 0.0037564486
  estimated relative force accuracy = 1.1312433e-05
  3d grid and FFT values/proc = 5415 1152
Generated 0 of 6 mixed pair_coeff terms from arithmetic mixing rule
Step        Density          Temp          Press          TotEng
4000000   1.1142955      303.95018     -1.5684541     -13929.224
Averages over the last 6 of 11 rows, steps 4500000 to 5000000:
Density Temp Press TotEng
1.1143 296.698 126.819 -13916.2
Loop time of 5243.68 on 12 procs for 1000000 steps with 1608 atoms

shell bash copy_files.sh dt_2 05.00Mstep

run 1000000
PPPM initialization ...
  extracting TIP4P info from pair style
  G vector (1/distance) = 0.31041189
  grid = 24 24 24
  stencil order = 5
  estimated absolute RMS force accuracy = 0.0037564486
  estimated relative force accuracy = 1.1312433e-05
  3d grid and FFT values/proc = 5415 1152
Generated 0 of 6 mixed pair_coeff terms from arithmetic mixing rule
Step        Density          Temp          Press          TotEng
5000000   1.1142955      299.60287     -67.293067     -13963.061
Averages over the last 6 of 11 rows, steps 5500000 to 6000000:
Density Temp Press TotEng
1.1143 302.872 -222.092 -13919.4
Loop time of 5219.17 on 12 procs for 1000000 steps with 1608 atoms

shell bash copy_files.sh dt_2 06.00Mstep

run 1000000
PPPM initialization ...
  extracting TIP4P info from pair style
  G vector (1/distance) = 0.31041189
  grid = 24 24 24
  stencil order = 5
  estimated absolute RMS force accuracy = 0.0037564486
  estimated relative force accuracy = 1.1312433e-05
  3d grid and FFT values/proc = 5415 1152
Generated 0 of 6 mixed pair_coeff terms from arithmetic mixing rule
Step        Density          Temp          Press          TotEng
6000000   1.1142955      312.21301     -372.00697     -13923.556
Averages over the last 6 of 11 rows, steps 6500000 to 7000000:
Density Temp Press TotEng
1.1143 294.71 245.468 -13942.3
Loop time of 5229.03 on 12 procs for 1000000 steps with 1608 atoms

shell bash copy_files.sh dt_2 07.00Mstep

run 1000000
PPPM initialization ...
  extracting TIP4P info from pair style
  G vector (1/distance) = 0.31041189
  grid = 24 24 24
  stencil order = 5
  estimated absolute RMS force accuracy = 0.0037564486
  estimated relative force accuracy = 1.1312433e-05
  3d grid and FFT values/proc = 5415 1152
Generated 0 of 6 mixed pair_coeff terms from arithmetic mixing rule
Step        Density          Temp          Press          TotEng
7000000   1.1142955      298.08454      732.57457     -13984.391
Averages over the last 6 of 11 rows, steps 7500000 to 8000000:
Density Temp Press TotEng
1.1143 297.569 -384.03 -13890.8
Loop time of 5225.24 on 12 procs for 1000000 steps with 1608 atoms

shell bash copy_files.sh dt_2 08.00Mstep

run 1000000
PPPM initialization ...
  extracting TIP4P info from pair style
  G vector (1/distance) = 0.31041189
  grid = 24 24 24
  stencil order = 5
  estimated absolute RMS force accuracy = 0.0037564486
  estimated relative force accuracy = 1.1312433e-05
  3d grid and FFT values/proc = 5415 1152
Generated 0 of 6 mixed pair_coeff terms from arithmetic mixing rule
Step        Density          Temp          Press          TotEng
8000000   1.1142955      306.40078      457.98831     -13866.756
Averages over the last 6 of 11 rows, steps 8500000 to 9000000:
Density Temp Press TotEng
1.1143 301.029 -146.121 -13880.6
Loop time of 5259.17 on 12 procs for 1000000 steps with 1608 atoms

shell bash copy_files.sh dt_2 09.00Mstep

run 1000000
PPPM initialization ...
  extracting TIP4P info from pair style
  G vector (1/distance) = 0.31041189
  grid = 24 24 24
  stencil order = 5
  estimated absolute RMS force accuracy = 0.0037564486
  estimated relative force accuracy = 1.1312433e-05
  3d grid and FFT values/proc = 5415 1152
Generated 0 of 6 mixed pair_coeff terms from arithmetic mixing rule
Step        Density          Temp          Press          TotEng
9000000   1.1142955      316.33896      273.1562      -13797.258
Averages over the last 6 of 11 rows, steps 9500000 to 10000000:
Density Temp Press TotEng
1.1143 298.55 -37.4492 -13928.9
Loop time of 5246.68 on 12 procs for 1000000 steps with 1608 atoms

shell bash copy_files.sh dt_2 10.00Mstep

run 2500000
PPPM initialization ...
  extracting TIP4P info from pair style
  G vector (1/distance) = 0.31041189
  grid = 24 24 24
  stencil order = 5
  estimated absolute RMS force accuracy = 0.0037564486
  estimated relative force accuracy = 1.1312433e-05
  3d grid and FFT values/proc = 5415 1152
Generated 0 of 6 mixed pair_coeff terms from arithmetic mixing rule
Step        Density          Temp          Press          TotEng
10000000   1.1142955      298.8448      -336.63204     -13960.071
Averages over the last 13 of 26 rows, steps 11300000 to 12500000:
Density Temp Press TotEng
1.1143 297.337 130.393 -13922.5
Loop time of 13120.4 on 12 procs for 2500000 steps with 1608 atoms

shell bash copy_files.sh dt_2 12.50Mstep

run 2500000
PPPM initialization ...
  extracting TIP4P info from pair style
  G vector (1/distance) = 0.31041189
  grid = 24 24 24
  stencil order = 5
  estimated absolute RMS force accuracy = 0.0037564486
  estimated relative force accuracy = 1.1312433e-05
  3d grid and FFT values/proc = 5415 1152
Generated 0 of 6 mixed pair_coeff terms from arithmetic mixing rule
Step        Density          Temp          Press          TotEng
12500000   1.1142955      296.1962       1217.8301     -13909.325
Averages over the last 13 of 26 rows, steps 13800000 to 15000000:
Density Temp Press TotEng
1.1143 299.158 16.1922 -13906.3
Loop time of 13106.1 on 12 procs for 2500000 steps with 1608 atoms

shell bash copy_files.sh dt_2 15.00Mstep

run 2500000
PPPM initialization ...
  extracting TIP4P info from pair style
  G vector (1/distance) = 0.31041189
  grid = 24 24 24
  stencil order = 5
  estimated absolute RMS force accuracy = 0.0037564486
  estimated relative force accuracy = 1.1312433e-05
  3d grid and FFT values/proc = 5415 1152
Generated 0 of 6 mixed pair_coeff terms from arithmetic mixing rule
Step        Density          Temp          Press          TotEng
15000000   1.1142955      293.57033     -463.61706     -13918.338
Averages over the last 13 of 26 rows, steps 16300000 to 17500000:
Density Temp Press TotEng
1.1143 296.577 229.911 -13912.3
Loop time of 13104.3 on 12 procs for 2500000 steps with 1608 atoms

shell bash copy_files.sh dt_2 17.50Mstep

run 2500000
PPPM initialization ...
  extracting TIP4P info from pair style
  G vector (1/distance) = 0.31041189
  grid = 24 24 24
  stencil order = 5
  estimated absolute RMS force accuracy = 0.0037564486
  estimated relative force accuracy = 1.1312433e-05
  3d grid and FFT values/proc = 5415 1152
Generated 0 of 6 mixed pair_coeff terms from arithmetic mixing rule
Step        Density          Temp          Press          TotEng
17500000   1.1142955      318.54431      580.39129     -13862.079
Averages over the last 13 of 26 rows, steps 18800000 to 20000000:
Density Temp Press TotEng
1.1143 295.687 80.7027 -13936.6
Loop time of 13038.7 on 12 procs for 2500000 steps with 1608 atoms

shell bash copy_files.sh dt_2 20.00Mstep

run 5000000
PPPM initialization ...
  extracting TIP4P info from pair style
  G vector (1/distance) = 0.31041189
  grid = 24 24 24
  stencil order = 5
  estimated absolute RMS force accuracy = 0.0037564486
  estimated relative force accuracy = 1.1312433e-05
  3d grid and FFT values/proc = 5415 1152
Generated 0 of 6 mixed pair_coeff terms from arithmetic mixing rule
Step        Density          Temp          Press          TotEng
20000000   1.1142955      292.48678     -311.93441     -13890.049
Averages over the last 26 of 51 rows, steps 22500000 to 25000000:
Density Temp Press TotEng
1.1143 298.337 67.2158 -13916.3
Loop time of 26185.4 on 12 procs for 5000000 steps with 1608 atoms

shell bash copy_files.sh dt_2 25.00Mstep

run 5000000
PPPM initialization ...
  extracting TIP4P info from pair style
  G vector (1/distance) = 0.31041189
  grid = 24 24 24
  stencil order = 5
  estimated absolute RMS force accuracy = 0.0037564486
  estimated relative force accuracy = 1.1312433e-05
  3d grid and FFT values/proc = 5415 1152
Generated 0 of 6 mixed pair_coeff terms from arithmetic mixing rule
Step        Density          Temp          Press          TotEng
25000000   1.1142955      299.12289     -457.99749     -14007.107
Averages over the last 26 of 51 rows, steps 27500000 to 30000000:
Density Temp Press TotEng
1.1143 300.31 95.9428 -13908.8
Loop time of 26232.6 on 12 procs for 5000000 steps with 1608 atoms

shell bash copy_files.sh dt_2 30.00Mstep

run 5000000
PPPM initialization ...
  extracting TIP4P info from pair style
  G vector (1/distance) = 0.31041189
  grid = 24 24 24
  stencil order = 5
  estimated absolute RMS force accuracy = 0.0037564486
  estimated relative force accuracy = 1.1312433e-05
  3d grid and FFT values/proc = 5415 1152
Generated 0 of 6 mixed pair_coeff terms from arithmetic mixing rule
Step        Density          Temp          Press          TotEng
30000000   1.1142955      287.2379      -1341.078      -13947.478
Averages over the last 26 of 51 rows, steps 32500000 to 35000000:
Density Temp Press TotEng
1.1143 296.642 142.537 -13915.7
Loop time of 26212.7 on 12 procs for 5000000 steps with 1608 atoms

shell bash copy_files.sh dt_2 35.00Mstep

run 5000000
PPPM initialization ...
  extracting TIP4P info from pair style
  G vector (1/distance) = 0.31041189
  grid = 24 24 24
  stencil order = 5
  estimated absolute RMS force accuracy = 0.0037564486
  estimated relative force accuracy = 1.1312433e-05
  3d grid and FFT values/proc = 5415 1152
Generated 0 of 6 mixed pair_coeff terms from arithmetic mixing rule
Step        Density          Temp          Press          TotEng
35000000   1.1142955      303.30777      1227.0659     -13857.041
Averages over the last 26 of 51 rows, steps 37500000 to 40000000:
Density Temp Press TotEng
1.1143 296.863 -109.069 -13912.6
Loop time of 26149.8 on 12 procs for 5000000 steps with 1608 atoms

shell bash copy_files.sh dt_2 40.00Mstep

run 5000000
PPPM initialization ...
  extracting TIP4P info from pair style
  G vector (1/distance) = 0.31041189
  grid = 24 24 24
  stencil order = 5
  estimated absolute RMS force accuracy = 0.0037564486
  estimated relative force accuracy = 1.1312433e-05
  3d grid and FFT values/proc = 5415 1152
Generated 0 of 6 mixed pair_coeff terms from arithmetic mixing rule
Step        Density          Temp          Press          TotEng
40000000   1.1142955      274.43175     -515.87912     -13989.029
Averages over the last 26 of 51 rows, steps 42500000 to 45000000:
Density Temp Press TotEng
1.1143 296.214 -46.1527 -13919.7
Loop time of 26181.8 on 12 procs for 5000000 steps with 1608 atoms
