LAMMPS (29 Aug 2024 - Update 1)
package omp 1
using multi-threaded neighbor list subroutines
####################################################
# EXAMPLE for using the OCTP plugin
# Transport properties of KOH-water
#  at 298 K and 1 atm.
#################### SETTING UP ####################
units real
dimension 3
newton on
boundary p p p
atom_style full

#################### VARIABLES ####################
variable Temp       equal   298.15          # Temperature in K
variable Pres       equal   1.0             # Pressure in atm.

variable RandomSeed equal   125             # The random seed for velocity
variable tstep      equal   1.0             # 1fs
variable Ninptpre   equal   1000#0           # Pre-initialize the NPT ensemble (very small timesteps)
variable Ninpt      equal   5000#0           # Initialize the NPT ensemble
variable Npnpt      equal   1000#000         # Production in the NPT ensemble (volume)
variable Ninvtpre   equal   1000#0           # Pre-initialize the NVT ensemble (very small timesteps)
variable Ninvt      equal   1000#00          # Initialize the NVT ensemble
variable Nrun       equal   2500#0000        # production in the NVT ensemble
variable Nf         equal   1000            # Nfreq (fix ave/time and thermo)
variable Ne         equal   20              # Nevery (fix ave/time)
variable Nr         equal   1000/20
variable NBR        equal   1000/5
variable Nd         equal   2500/10

variable nb         equal   10              # Number of blocks (fix ordern)
variable nbe        equal   20              # Number of block elements (fix ordern)
variable Nvisc      equal   5               # Nevery for viscosity (fix ordern: sample data at (Nvisc*2))
variable Ncond      equal   5               # Nevery for Tconductivity (fix ordern: sample data at (Ncond*2))
variable Ndiff      equal   100             # Nevery for diffusivity (fix ordern: sample data at (Ndiff))
variable Nwrit      equal   100             # Nwrite for transport properties (fix ordern: write every (Nwrit))
variable NwriteF    equal   500             # Nwrite for outputting positions of atoms in the NVT ensemble

variable Nrdfe      equal   100             # Nevery for RDF (fix ave/time)
variable Nrdfw      equal   1000            # Nwrite for RDF (compute rdf/ext: write every (Nrdfw*Nrdfe))
variable binnum     equal   2000            # Number of bins for RDF

variable Nthermo    equal   1000            # Number of timesteps between thermo output production

#################### ATOM DEFINITION and FORCEFIELD ####################

read_data ./data.lmp                        # read the positions
Reading data file ...
  orthogonal box = (0 0 0) to (32.17316 32.17316 32.17316)
  reading atoms ...
  3340 atoms
  scanning bonds ...
  scanning angles ...
  orthogonal box = (0 0 0) to (32.17316 32.17316 32.17316)
  reading bonds ...
  2200 bonds
  reading angles ...
  1100 angles
Finding 1-2 1-3 1-4 neighbors ...
     2 = max # of 1-2 neighbors
     1 = max # of 1-3 neighbors
     1 = max # of 1-4 neighbors
     2 = max # of special neighbors
include ./forcefield.data                  # read the force field
#--------INTERMOLECULAR POTENTIAL -------------------#
# --------Developed for MadridT LiCl + TIP4P/2005-----#

mass 1 15.9994	# Ow
mass 2 1.008	# Hw
mass 3 6.941	# Li
mass 4 35.453	# Cl

pair_style lj/cut/tip4p/long 1 2 1 1 0.1546 10.0
kspace_style pppm/tip4p 1.0e-5
pair_modify mix arithmetic tail yes # ATC and Lorentz-Berthelot combining rules

#-----------------Combinations----------------------------

pair_coeff 1 1 0.185200 3.15890     # Ow-Ow
pair_coeff 1 2 0.000000 0.00000     # Ow-Hw
pair_coeff 1 3 0.167459 2.12000     # Ow-Li
pair_coeff 1 4 0.014814 4.23867     # Ow-Cl

pair_coeff 2 2 0.000000 0.00000     # Hw-Hw
pair_coeff 2 3 0.000000 0.00000     # Hw-Li
pair_coeff 2 4 0.000000 0.00000     # Hw-Cl

pair_coeff 3 3 0.103989 1.43970     # Li-Li
pair_coeff 3 4 0.306631 2.70000     # Li-Cl

pair_coeff 4 4 0.018385 4.69906     # Cl-Cl

bond_style  harmonic
bond_coeff 1 2000 0.9572           # Ow-Hw

angle_style harmonic
angle_coeff 1 200 104.52           # Hw-Ow-Hw

#dihedral_style none
#improper_style none

set type 1 charge -1.1128          # O
Setting atom values ...
  1100 settings made for charge
set type 2 charge +0.5564          # OH
Setting atom values ...
  2200 settings made for charge
set type 3 charge +0.8500          # Li
Setting atom values ...
  20 settings made for charge
set type 4 charge -0.8500          # Cl
Setting atom values ...
  20 settings made for charge

#################### INITIALIZATION ####################
# groups for the central atoms of water (O) and methanol (O)
group wat   type 1      # The Oxygen of WATER molecules
1100 atoms in group wat
group K     type 3
20 atoms in group K
group Oh    type 4
20 atoms in group Oh

# combined group creation by union of existing groups
group K_Oh union K Oh  # does this crash octp?
40 atoms in group K_Oh

# neigbor lists
neighbor 2.0 bin
neigh_modify every 1 delay 0 check yes

# velocity-Verlet integrator
run_style verlet

# minimizing the system using the conjugate gradient method
min_style cg
min_modify dmax 0.05
minimize 1.0e-6 1.0e-6 1000 10000

CITE-CITE-CITE-CITE-CITE-CITE-CITE-CITE-CITE-CITE-CITE-CITE-CITE

Your simulation uses code contributions which should be cited:

- Type Label Framework: https://doi.org/10.1021/acs.jpcb.3c08419

@Article{Gissinger24,
 author = {Jacob R. Gissinger, Ilia Nikiforov, Yaser Afshar, Brendon Waters, Moon-ki Choi, Daniel S. Karls, Alexander Stukowski, Wonpil Im, Hendrik Heinz, Axel Kohlmeyer, and Ellad B. Tadmor},
 title = {Type Label Framework for Bonded Force Fields in LAMMPS},
 journal = {J. Phys. Chem. B},
 year =    2024,
 volume =  128,
 number =  13,
 pages =   {3282â€“-3297}
}

CITE-CITE-CITE-CITE-CITE-CITE-CITE-CITE-CITE-CITE-CITE-CITE-CITE

PPPM initialization ...
  extracting TIP4P info from pair style
  G vector (1/distance) = 0.3101054
  grid = 30 30 30
  stencil order = 5
  estimated absolute RMS force accuracy = 0.0038874877
  estimated relative force accuracy = 1.1707054e-05
  3d grid and FFT values/proc = 13838 4500
Generated 0 of 6 mixed pair_coeff terms from arithmetic mixing rule
Last active /omp style is kspace_style pppm/tip4p/omp
Step          Temp          E_pair         E_mol          TotEng         Press
0   0              3181.7657      5498.066       8679.8317      215430.9
Loop time of 7.73605 on 6 procs for 1000 steps with 3340 atoms

Minimization stats:
  Stopping criterion = max iterations
  Energy initial, next-to-last, final =
  Force two-norm initial, final = 8680.344 52.738299
  Force max component initial, final = 276.3527 9.4933373
  Final line search alpha, max atom move = 0.004302267 0.040842872
  Iterations, force evaluations = 1000 1827

reset_timestep 0

# initializing velocities
velocity all create 298.15 125

# rate of writing thermal properties to the log file
thermo 1000

#################### 1) Initialize the NPT ensemble ####################
# applying the shake algorithm for rigid molecules and the NPT solver
fix constrain all shake 1.0e-6 1000 0 b 1 a 1
Finding SHAKE clusters ...
       0 = # of size 2 clusters
       0 = # of size 3 clusters
       0 = # of size 4 clusters
    1100 = # of frozen angles
  find clusters CPU = 0.000 seconds
fix integrate all npt temp 298.15 298.15 10.0 iso 1 1 100.0

# balance 0.9 shift xyz 20 1.1 out tmp.balance

# Initializing the whole system with very small timesteps in the NPT ensemble
timestep 0.001
run 1000
PPPM initialization ...
  extracting TIP4P info from pair style
  G vector (1/distance) = 0.3101054
  grid = 30 30 30
  stencil order = 5
  estimated absolute RMS force accuracy = 0.0038874877
  estimated relative force accuracy = 1.1707054e-05
  3d grid and FFT values/proc = 13838 4500
Generated 0 of 6 mixed pair_coeff terms from arithmetic mixing rule
Last active /omp style is kspace_style pppm/tip4p/omp
Step          Temp          E_pair         E_mol          TotEng         Press          Volume
0   444.62834     -18447.775      0             -15480.311      876407.71      33302.831
Loop time of 5.91167 on 6 procs for 1000 steps with 3340 atoms

timestep 0.01
run 1000
PPPM initialization ...
  extracting TIP4P info from pair style
  G vector (1/distance) = 0.31010578
  grid = 30 30 30
  stencil order = 5
  estimated absolute RMS force accuracy = 0.0038874255
  estimated relative force accuracy = 1.1706866e-05
  3d grid and FFT values/proc = 13838 4500
Generated 0 of 6 mixed pair_coeff terms from arithmetic mixing rule
Last active /omp style is kspace_style pppm/tip4p/omp
Step          Temp          E_pair         E_mol          TotEng         Press          Volume
1000   293.23134     -18022.462      0             -16065.427     -14386.969      33302.295
Loop time of 5.92569 on 6 procs for 1000 steps with 3340 atoms

timestep 0.1
run 1000
PPPM initialization ...
  extracting TIP4P info from pair style
  G vector (1/distance) = 0.31012657
  grid = 30 30 30
  stencil order = 5
  estimated absolute RMS force accuracy = 0.0038840917
  estimated relative force accuracy = 1.1696827e-05
  3d grid and FFT values/proc = 13838 4500
Generated 0 of 6 mixed pair_coeff terms from arithmetic mixing rule
Last active /omp style is kspace_style pppm/tip4p/omp
Step          Temp          E_pair         E_mol          TotEng         Press          Volume
2000   161.37952     -17027.366      0             -15950.313      11409.377      33273.553
Loop time of 5.76459 on 6 procs for 1000 steps with 3340 atoms

timestep 0.2
run 1000
PPPM initialization ...
  extracting TIP4P info from pair style
  G vector (1/distance) = 0.31379757
  grid = 32 32 32
  stencil order = 5
  estimated absolute RMS force accuracy = 0.0030264052
  estimated relative force accuracy = 9.1139295e-06
  3d grid and FFT values/proc = 16146 6144
Generated 0 of 6 mixed pair_coeff terms from arithmetic mixing rule
Last active /omp style is kspace_style pppm/tip4p/omp
Step          Temp          E_pair         E_mol          TotEng         Press          Volume
3000   299.88826     -15755.523      0             -13754.059     -6852.2022      34608.809
Loop time of 6.40813 on 6 procs for 1000 steps with 3340 atoms

timestep 0.5
run 1000
PPPM initialization ...
  extracting TIP4P info from pair style
  G vector (1/distance) = 0.30968384
  grid = 30 30 30
  stencil order = 5
  estimated absolute RMS force accuracy = 0.0039556707
  estimated relative force accuracy = 1.1912385e-05
  3d grid and FFT values/proc = 13838 4500
Generated 0 of 6 mixed pair_coeff terms from arithmetic mixing rule
Last active /omp style is kspace_style pppm/tip4p/omp
Step          Temp          E_pair         E_mol          TotEng         Press          Volume
4000   295.27147     -15584.566      0             -13613.914     -1566.298       33890.573
Loop time of 6.14716 on 6 procs for 1000 steps with 3340 atoms

timestep 1.0
run 1000
PPPM initialization ...
  extracting TIP4P info from pair style
  G vector (1/distance) = 0.30987549
  grid = 30 30 30
  stencil order = 5
  estimated absolute RMS force accuracy = 0.0039245366
  estimated relative force accuracy = 1.1818625e-05
  3d grid and FFT values/proc = 13838 4500
Generated 0 of 6 mixed pair_coeff terms from arithmetic mixing rule
Last active /omp style is kspace_style pppm/tip4p/omp
Step          Temp          E_pair         E_mol          TotEng         Press          Volume
5000   291.90375     -15713.422      0             -13765.246      411.06278      33622.215
Loop time of 6.46548 on 6 procs for 1000 steps with 3340 atoms

reset_timestep 0

#################### 2) Equilibrating the NPT ensemble ####################
unfix integrate
fix integrate all npt temp 298.15 298.15 100.0 iso 1 1 1000.0

# balance         0.9 shift xyz 20 1.1 out tmp.balance

timestep 1

variable TotEn equal etotal
variable PotEn equal pe
variable Volume equal vol
variable Dens equal density
compute T all temp
compute P all pressure T

fix AveAll all ave/time 20 50 1000 v_TotEn v_PotEn c_T c_P file npt_equi.dat
run 5000
PPPM initialization ...
  extracting TIP4P info from pair style
  G vector (1/distance) = 0.31005118
  grid = 30 30 30
  stencil order = 5
  estimated absolute RMS force accuracy = 0.0038961949
  estimated relative force accuracy = 1.1733275e-05
  3d grid and FFT values/proc = 13838 4500
Generated 0 of 6 mixed pair_coeff terms from arithmetic mixing rule
Last active /omp style is kspace_style pppm/tip4p/omp
Step          Temp          E_pair         E_mol          TotEng         Press          Volume
0   289.56703     -15875.233      0             -13942.653     -698.84301      33377.897
Loop time of 32.9254 on 6 procs for 5000 steps with 3340 atoms

unfix AveAll
reset_timestep 0

#################### 3) Production in NPT ######################
# Getting the average volume of the system
fix VoluAve all ave/time 1 1000 1000 v_Volume file volume.dat
fix AveAll all ave/time 20 50 1000 v_TotEn v_PotEn c_T c_P v_Dens file npt_prod.dat

run 1000
PPPM initialization ...
  extracting TIP4P info from pair style
  G vector (1/distance) = 0.30954376
  grid = 30 30 30
  stencil order = 5
  estimated absolute RMS force accuracy = 0.0039785709
  estimated relative force accuracy = 1.1981348e-05
  3d grid and FFT values/proc = 13838 4500
Generated 0 of 6 mixed pair_coeff terms from arithmetic mixing rule
Last active /omp style is kspace_style pppm/tip4p/omp
Step          Temp          E_pair         E_mol          TotEng         Press          Volume
0   299.13655     -15984.871      0             -13988.424     -645.15207      34087.938
Loop time of 6.66276 on 6 procs for 1000 steps with 3340 atoms

unfix AveAll
# unfix BALANCE

#################### 4) Initializing the NVT ensemble ####################
# scaling the size of the system to the average volume
variable sidesize equal (f_VoluAve^(1.0/3.0))    # get the volume
variable xlow equal xlo
variable ylow equal ylo
variable zlow equal zlo
variable xhig equal (xlo+32.2813304600296)
variable yhig equal (ylo+32.2813304600296)
variable zhig equal (zlo+32.2813304600296)
change_box all x final -0.0412022522017001 32.2401282078279 y final -0.0412022522017001 32.2401282078279 z final -0.0412022522017001 32.2401282078279
Changing box ...
  orthogonal box = (-0.041202252 -0.041202252 -0.041202252) to (32.240128 32.214362 32.214362)
  orthogonal box = (-0.041202252 -0.041202252 -0.041202252) to (32.240128 32.240128 32.214362)
  orthogonal box = (-0.041202252 -0.041202252 -0.041202252) to (32.240128 32.240128 32.240128)

unfix VoluAve
unfix integrate
reset_timestep 0

# changing the ensemble to strickt NVT
fix integrate all nvt temp 298.15 298.15 10.0
# balance 0.9 shift xyz 20 1.1 out tmp.balance

# Initializing the whole system with very small timesteps in the NVT ensemble
timestep 0.001
run 1000
PPPM initialization ...
  extracting TIP4P info from pair style
  G vector (1/distance) = 0.30986285
  grid = 30 30 30
  stencil order = 5
  estimated absolute RMS force accuracy = 0.0039265845
  estimated relative force accuracy = 1.1824793e-05
  3d grid and FFT values/proc = 13838 4500
Generated 0 of 6 mixed pair_coeff terms from arithmetic mixing rule
Last active /omp style is kspace_style pppm/tip4p/omp
Step          Temp          E_pair         E_mol          TotEng         Press
0   293.15125     -15965.373      0             -14008.872     -23632.607
Loop time of 3.63906 on 6 procs for 1000 steps with 3340 atoms

timestep 0.01
run 1000
PPPM initialization ...
  extracting TIP4P info from pair style
  G vector (1/distance) = 0.30986285
  grid = 30 30 30
  stencil order = 5
  estimated absolute RMS force accuracy = 0.0039265845
  estimated relative force accuracy = 1.1824793e-05
  3d grid and FFT values/proc = 13838 4500
Generated 0 of 6 mixed pair_coeff terms from arithmetic mixing rule
Last active /omp style is kspace_style pppm/tip4p/omp
Step          Temp          E_pair         E_mol          TotEng         Press
1000   292.96966     -15936.541      0             -13981.252     -464.01391
Loop time of 3.63891 on 6 procs for 1000 steps with 3340 atoms

timestep 0.1
run 1000
PPPM initialization ...
  extracting TIP4P info from pair style
  G vector (1/distance) = 0.30986285
  grid = 30 30 30
  stencil order = 5
  estimated absolute RMS force accuracy = 0.0039265845
  estimated relative force accuracy = 1.1824793e-05
  3d grid and FFT values/proc = 13838 4500
Generated 0 of 6 mixed pair_coeff terms from arithmetic mixing rule
Last active /omp style is kspace_style pppm/tip4p/omp
Step          Temp          E_pair         E_mol          TotEng         Press
2000   301.28243     -15950.579      0             -13939.81      -649.36751
Loop time of 3.68297 on 6 procs for 1000 steps with 3340 atoms

timestep 0.2
run 1000
PPPM initialization ...
  extracting TIP4P info from pair style
  G vector (1/distance) = 0.30986285
  grid = 30 30 30
  stencil order = 5
  estimated absolute RMS force accuracy = 0.0039265845
  estimated relative force accuracy = 1.1824793e-05
  3d grid and FFT values/proc = 13838 4500
Generated 0 of 6 mixed pair_coeff terms from arithmetic mixing rule
Last active /omp style is kspace_style pppm/tip4p/omp
Step          Temp          E_pair         E_mol          TotEng         Press
3000   290.63881     -15983.061      0             -14043.328     -402.89228
Loop time of 3.70418 on 6 procs for 1000 steps with 3340 atoms

timestep 0.5
run 1000
PPPM initialization ...
  extracting TIP4P info from pair style
  G vector (1/distance) = 0.30986285
  grid = 30 30 30
  stencil order = 5
  estimated absolute RMS force accuracy = 0.0039265845
  estimated relative force accuracy = 1.1824793e-05
  3d grid and FFT values/proc = 13838 4500
Generated 0 of 6 mixed pair_coeff terms from arithmetic mixing rule
Last active /omp style is kspace_style pppm/tip4p/omp
Step          Temp          E_pair         E_mol          TotEng         Press
4000   299.50785     -15994.177      0             -13995.251     -136.06167
Loop time of 3.80789 on 6 procs for 1000 steps with 3340 atoms

timestep 1.0
run 1000
PPPM initialization ...
  extracting TIP4P info from pair style
  G vector (1/distance) = 0.30986285
  grid = 30 30 30
  stencil order = 5
  estimated absolute RMS force accuracy = 0.0039265845
  estimated relative force accuracy = 1.1824793e-05
  3d grid and FFT values/proc = 13838 4500
Generated 0 of 6 mixed pair_coeff terms from arithmetic mixing rule
Last active /omp style is kspace_style pppm/tip4p/omp
Step          Temp          E_pair         E_mol          TotEng         Press
5000   299.727       -16030.385      0             -14029.997     -631.70017
Loop time of 3.91193 on 6 procs for 1000 steps with 3340 atoms

reset_timestep 0

#################### 5) Equilibrate the NVT ensemble ####################
unfix integrate
fix integrate all nvt temp 298.15 298.15 100.0

# balance 0.9 shift xyz 20 1.1 out tmp.balance

timestep 1
fix AveAll all ave/time 20 50 1000 v_TotEn v_PotEn c_T c_P file nvt_equi.dat

run 1000
PPPM initialization ...
  extracting TIP4P info from pair style
  G vector (1/distance) = 0.30986285
  grid = 30 30 30
  stencil order = 5
  estimated absolute RMS force accuracy = 0.0039265845
  estimated relative force accuracy = 1.1824793e-05
  3d grid and FFT values/proc = 13838 4500
Generated 0 of 6 mixed pair_coeff terms from arithmetic mixing rule
Last active /omp style is kspace_style pppm/tip4p/omp
Step          Temp          E_pair         E_mol          TotEng         Press
0   295.38111     -16012.495      0             -14041.111     -564.18507
Loop time of 4.12556 on 6 procs for 1000 steps with 3340 atoms

unfix AveAll
reset_timestep 0

#################### 6) Production in NVT #####################
# output files using xyz format
# dump_modify dump1 element O H K Oh Hh sort id

# Output files using the DCD format
dump dump3 K_Oh dcd 500 movie.dcd
dump_modify dump3 unwrap yes sort id

# computing average total energy, pontential energy, temperature, and pressure over time
fix AveAll all ave/time 20 50 1000 v_TotEn v_PotEn c_T c_P file nvt_prod.dat

# computing self-diffusion and Onsager coefficients using the OCTP plugin
compute positions all position
fix f3 all ordern diffusivity 100 100 c_positions nb 10 nbe 20 file diffself.dat diffonsag.dat title "Water at 298 K and 1 atm"
# computing shear and bulk viscosities  using the OCTP plugin

# # computing thermal conductivity using the OCTP plugin
# compute KE all ke/atom
# compute PE all pe/atom
# compute ST all stress/atom NULL virial
# compute heatflux all heat/flux KE PE ST

# # computing the RDF for all group pairs

# rate of writing thermal properties to the log file
thermo 1000
# Thermo style for outputing system properties to the log file
thermo_style custom step temp press pe ke etotal
thermo_modify flush yes

#thermo 1
run 2500

CITE-CITE-CITE-CITE-CITE-CITE-CITE-CITE-CITE-CITE-CITE-CITE-CITE

Your simulation uses code contributions which should be cited:

- fix ave/ordern command:

@Article{Jamali2019,
 author = {Jamali, Seyed Hossein and Wolf, Ludger and Becker, Tim M. and de Groen, MariÃ«tte and Ramdin, Mahinder and Hartkamp, Remco and Bardow, AndrÃ© and Vlugt, Thijs J. H. and Moultos, Othonas A.},
 title = {OCTP: A Tool for On-the-Fly Calculation of Transport Properties of Fluids with the Order-n Algorithm in LAMMPS},
 doi = {10.1021/acs.jcim.8b00939},
 journal = {J. Chem. Inf. Model.},
 year = {2019},
 volume = {59},
 pages = {1290-1294}
 }

CITE-CITE-CITE-CITE-CITE-CITE-CITE-CITE-CITE-CITE-CITE-CITE-CITE

PPPM initialization ...
  extracting TIP4P info from pair style
  G vector (1/distance) = 0.30986285
  grid = 30 30 30
  stencil order = 5
  estimated absolute RMS force accuracy = 0.0039265845
  estimated relative force accuracy = 1.1824793e-05
  3d grid and FFT values/proc = 13838 4500
Generated 0 of 6 mixed pair_coeff terms from arithmetic mixing rule
Last active /omp style is kspace_style pppm/tip4p/omp
Step          Temp          Press          PotEng         KinEng         TotEng
0   305.49969     -204.57219     -16071.469      2038.9152     -14032.554
Loop time of 10.3615 on 6 procs for 2500 steps with 3340 atoms

quit
